// Generated for: spectre
// Generated on: Dec 21 13:02:10 2021
// Design library name: project_4x
// Design cell name: RowDecoder_256_4xP_TB
// Design view name: schematic
simulator lang=spectre
global 0 vdd!
