// File: /home/edauser0/ayigit/RowDecoder_Project/CDS_VISIO/project_pex/Post_L4_256t4_Text/spectreText/spectre.scs
// Created: Tue Dec 21 12:53:14 2021
// Program "Calibre xRC"
// Version "v2020.1_17.9"
// 
simulator lang=spectre
include "/home/edauser0/ayigit/RowDecoder_Project/CDS_VISIO/project_pex/Post_L4_256t4_Text/spectreText/spectre.scs.pex"
subckt Post_L4_256t4_ex (  SEL3\<3\> WLSEL\<1023\> SEL2\<3\> WLSEL\<1022\> \
 SEL1\<3\> WLSEL\<1021\> SEL0\<3\> WLSEL\<1020\> WLSEL\<1019\> WLSEL\<1018\> \
 WLSEL\<1017\> SEL0\<2\> WLSEL\<1016\> WLSEL\<1015\> WLSEL\<1014\> \
 WLSEL\<1013\> SEL0\<1\> WLSEL\<1012\> WLSEL\<1011\> WLSEL\<1010\> \
 WLSEL\<1009\> SEL0\<0\> WLSEL\<1008\> WLSEL\<1007\> WLSEL\<1006\> SEL1\<2\> \
 WLSEL\<1005\> WLSEL\<1004\> WLSEL\<1003\> WLSEL\<1002\> WLSEL\<1001\> \
 WLSEL\<1000\> WLSEL\<999\> WLSEL\<998\> WLSEL\<997\> WLSEL\<996\> \
 WLSEL\<995\> WLSEL\<994\> WLSEL\<993\> WLSEL\<992\> WLSEL\<991\> WLSEL\<990\> \
 SEL1\<1\> WLSEL\<989\> WLSEL\<988\> WLSEL\<987\> WLSEL\<986\> WLSEL\<985\> \
 WLSEL\<984\> WLSEL\<983\> WLSEL\<982\> WLSEL\<981\> WLSEL\<980\> WLSEL\<979\> \
 WLSEL\<978\> WLSEL\<977\> WLSEL\<976\> WLSEL\<975\> WLSEL\<974\> SEL1\<0\> \
 WLSEL\<973\> WLSEL\<972\> WLSEL\<971\> WLSEL\<970\> WLSEL\<969\> WLSEL\<968\> \
 WLSEL\<967\> WLSEL\<966\> WLSEL\<965\> WLSEL\<964\> WLSEL\<963\> WLSEL\<962\> \
 WLSEL\<961\> WLSEL\<960\> WLSEL\<959\> SEL2\<2\> WLSEL\<958\> WLSEL\<957\> \
 WLSEL\<956\> WLSEL\<955\> WLSEL\<954\> WLSEL\<953\> WLSEL\<952\> WLSEL\<951\> \
 WLSEL\<950\> WLSEL\<949\> WLSEL\<948\> WLSEL\<947\> WLSEL\<946\> WLSEL\<945\> \
 WLSEL\<944\> WLSEL\<943\> WLSEL\<942\> WLSEL\<941\> WLSEL\<940\> WLSEL\<939\> \
 WLSEL\<938\> WLSEL\<937\> WLSEL\<936\> WLSEL\<935\> WLSEL\<934\> WLSEL\<933\> \
 WLSEL\<932\> WLSEL\<931\> WLSEL\<930\> WLSEL\<929\> WLSEL\<928\> WLSEL\<927\> \
 WLSEL\<926\> WLSEL\<925\> WLSEL\<924\> WLSEL\<923\> WLSEL\<922\> WLSEL\<921\> \
 WLSEL\<920\> WLSEL\<919\> WLSEL\<918\> WLSEL\<917\> WLSEL\<916\> WLSEL\<915\> \
 WLSEL\<914\> WLSEL\<913\> WLSEL\<912\> WLSEL\<911\> WLSEL\<910\> WLSEL\<909\> \
 WLSEL\<908\> WLSEL\<907\> WLSEL\<906\> WLSEL\<905\> WLSEL\<904\> WLSEL\<903\> \
 WLSEL\<902\> WLSEL\<901\> WLSEL\<900\> WLSEL\<899\> WLSEL\<898\> WLSEL\<897\> \
 WLSEL\<896\> WLSEL\<895\> SEL2\<1\> WLSEL\<894\> WLSEL\<893\> WLSEL\<892\> \
 WLSEL\<891\> WLSEL\<890\> WLSEL\<889\> WLSEL\<888\> WLSEL\<887\> WLSEL\<886\> \
 WLSEL\<885\> WLSEL\<884\> WLSEL\<883\> WLSEL\<882\> WLSEL\<881\> WLSEL\<880\> \
 WLSEL\<879\> WLSEL\<878\> WLSEL\<877\> WLSEL\<876\> WLSEL\<875\> WLSEL\<874\> \
 WLSEL\<873\> WLSEL\<872\> WLSEL\<871\> WLSEL\<870\> WLSEL\<869\> WLSEL\<868\> \
 WLSEL\<867\> WLSEL\<866\> WLSEL\<865\> WLSEL\<864\> WLSEL\<863\> WLSEL\<862\> \
 WLSEL\<861\> WLSEL\<860\> WLSEL\<859\> WLSEL\<858\> WLSEL\<857\> WLSEL\<856\> \
 WLSEL\<855\> WLSEL\<854\> WLSEL\<853\> WLSEL\<852\> WLSEL\<851\> WLSEL\<850\> \
 WLSEL\<849\> WLSEL\<848\> WLSEL\<847\> WLSEL\<846\> WLSEL\<845\> WLSEL\<844\> \
 WLSEL\<843\> WLSEL\<842\> WLSEL\<841\> WLSEL\<840\> WLSEL\<839\> WLSEL\<838\> \
 WLSEL\<837\> WLSEL\<836\> WLSEL\<835\> WLSEL\<834\> WLSEL\<833\> WLSEL\<832\> \
 WLSEL\<831\> SEL2\<0\> WLSEL\<830\> WLSEL\<829\> WLSEL\<828\> WLSEL\<827\> \
 WLSEL\<826\> WLSEL\<825\> WLSEL\<824\> WLSEL\<823\> WLSEL\<822\> WLSEL\<821\> \
 WLSEL\<820\> WLSEL\<819\> WLSEL\<818\> WLSEL\<817\> WLSEL\<816\> WLSEL\<815\> \
 WLSEL\<814\> WLSEL\<813\> WLSEL\<812\> WLSEL\<811\> WLSEL\<810\> WLSEL\<809\> \
 WLSEL\<808\> WLSEL\<807\> WLSEL\<806\> WLSEL\<805\> WLSEL\<804\> WLSEL\<803\> \
 WLSEL\<802\> WLSEL\<801\> WLSEL\<800\> WLSEL\<799\> WLSEL\<798\> WLSEL\<797\> \
 WLSEL\<796\> WLSEL\<795\> WLSEL\<794\> WLSEL\<793\> WLSEL\<792\> WLSEL\<791\> \
 WLSEL\<790\> WLSEL\<789\> WLSEL\<788\> WLSEL\<787\> WLSEL\<786\> WLSEL\<785\> \
 WLSEL\<784\> WLSEL\<783\> WLSEL\<782\> WLSEL\<781\> WLSEL\<780\> WLSEL\<779\> \
 WLSEL\<778\> WLSEL\<777\> WLSEL\<776\> WLSEL\<775\> WLSEL\<774\> WLSEL\<773\> \
 WLSEL\<772\> WLSEL\<771\> WLSEL\<770\> WLSEL\<769\> WLSEL\<768\> SEL3\<2\> \
 WLSEL\<767\> WLSEL\<766\> WLSEL\<765\> WLSEL\<764\> WLSEL\<763\> WLSEL\<762\> \
 WLSEL\<761\> WLSEL\<760\> WLSEL\<759\> WLSEL\<758\> WLSEL\<757\> WLSEL\<756\> \
 WLSEL\<755\> WLSEL\<754\> WLSEL\<753\> WLSEL\<752\> WLSEL\<751\> WLSEL\<750\> \
 WLSEL\<749\> WLSEL\<748\> WLSEL\<747\> WLSEL\<746\> WLSEL\<745\> WLSEL\<744\> \
 WLSEL\<743\> WLSEL\<742\> WLSEL\<741\> WLSEL\<740\> WLSEL\<739\> WLSEL\<738\> \
 WLSEL\<737\> WLSEL\<736\> WLSEL\<735\> WLSEL\<734\> WLSEL\<733\> WLSEL\<732\> \
 WLSEL\<731\> WLSEL\<730\> WLSEL\<729\> WLSEL\<728\> WLSEL\<727\> WLSEL\<726\> \
 WLSEL\<725\> WLSEL\<724\> WLSEL\<723\> WLSEL\<722\> WLSEL\<721\> WLSEL\<720\> \
 WLSEL\<719\> WLSEL\<718\> WLSEL\<717\> WLSEL\<716\> WLSEL\<715\> WLSEL\<714\> \
 WLSEL\<713\> WLSEL\<712\> WLSEL\<711\> WLSEL\<710\> WLSEL\<709\> WLSEL\<708\> \
 WLSEL\<707\> WLSEL\<706\> WLSEL\<705\> WLSEL\<704\> WLSEL\<703\> WLSEL\<702\> \
 WLSEL\<701\> WLSEL\<700\> WLSEL\<699\> WLSEL\<698\> WLSEL\<697\> WLSEL\<696\> \
 WLSEL\<695\> WLSEL\<694\> WLSEL\<693\> WLSEL\<692\> WLSEL\<691\> WLSEL\<690\> \
 WLSEL\<689\> WLSEL\<688\> WLSEL\<687\> WLSEL\<686\> WLSEL\<685\> WLSEL\<684\> \
 WLSEL\<683\> WLSEL\<682\> WLSEL\<681\> WLSEL\<680\> WLSEL\<679\> WLSEL\<678\> \
 WLSEL\<677\> WLSEL\<676\> WLSEL\<675\> WLSEL\<674\> WLSEL\<673\> WLSEL\<672\> \
 WLSEL\<671\> WLSEL\<670\> WLSEL\<669\> WLSEL\<668\> WLSEL\<667\> WLSEL\<666\> \
 WLSEL\<665\> WLSEL\<664\> WLSEL\<663\> WLSEL\<662\> WLSEL\<661\> WLSEL\<660\> \
 WLSEL\<659\> WLSEL\<658\> WLSEL\<657\> WLSEL\<656\> WLSEL\<655\> WLSEL\<654\> \
 WLSEL\<653\> WLSEL\<652\> WLSEL\<651\> WLSEL\<650\> WLSEL\<649\> WLSEL\<648\> \
 WLSEL\<647\> WLSEL\<646\> WLSEL\<645\> WLSEL\<644\> WLSEL\<643\> WLSEL\<642\> \
 WLSEL\<641\> WLSEL\<640\> WLSEL\<639\> WLSEL\<638\> WLSEL\<637\> WLSEL\<636\> \
 WLSEL\<635\> WLSEL\<634\> WLSEL\<633\> WLSEL\<632\> WLSEL\<631\> WLSEL\<630\> \
 WLSEL\<629\> WLSEL\<628\> WLSEL\<627\> WLSEL\<626\> WLSEL\<625\> WLSEL\<624\> \
 WLSEL\<623\> WLSEL\<622\> WLSEL\<621\> WLSEL\<620\> WLSEL\<619\> WLSEL\<618\> \
 WLSEL\<617\> WLSEL\<616\> WLSEL\<615\> WLSEL\<614\> WLSEL\<613\> WLSEL\<612\> \
 WLSEL\<611\> WLSEL\<610\> WLSEL\<609\> WLSEL\<608\> WLSEL\<607\> WLSEL\<606\> \
 WLSEL\<605\> WLSEL\<604\> WLSEL\<603\> WLSEL\<602\> WLSEL\<601\> WLSEL\<600\> \
 WLSEL\<599\> WLSEL\<598\> WLSEL\<597\> WLSEL\<596\> WLSEL\<595\> WLSEL\<594\> \
 WLSEL\<593\> WLSEL\<592\> WLSEL\<591\> WLSEL\<590\> WLSEL\<589\> WLSEL\<588\> \
 WLSEL\<587\> WLSEL\<586\> WLSEL\<585\> WLSEL\<584\> WLSEL\<583\> WLSEL\<582\> \
 WLSEL\<581\> WLSEL\<580\> WLSEL\<579\> WLSEL\<578\> WLSEL\<577\> WLSEL\<576\> \
 WLSEL\<575\> WLSEL\<574\> WLSEL\<573\> WLSEL\<572\> WLSEL\<571\> WLSEL\<570\> \
 WLSEL\<569\> WLSEL\<568\> WLSEL\<567\> WLSEL\<566\> WLSEL\<565\> WLSEL\<564\> \
 WLSEL\<563\> WLSEL\<562\> WLSEL\<561\> WLSEL\<560\> WLSEL\<559\> WLSEL\<558\> \
 WLSEL\<557\> WLSEL\<556\> WLSEL\<555\> WLSEL\<554\> WLSEL\<553\> WLSEL\<552\> \
 WLSEL\<551\> WLSEL\<550\> WLSEL\<549\> WLSEL\<548\> WLSEL\<547\> WLSEL\<546\> \
 WLSEL\<545\> WLSEL\<544\> WLSEL\<543\> WLSEL\<542\> WLSEL\<541\> WLSEL\<540\> \
 WLSEL\<539\> WLSEL\<538\> WLSEL\<537\> WLSEL\<536\> WLSEL\<535\> WLSEL\<534\> \
 WLSEL\<533\> WLSEL\<532\> WLSEL\<531\> WLSEL\<530\> WLSEL\<529\> WLSEL\<528\> \
 WLSEL\<527\> WLSEL\<526\> WLSEL\<525\> WLSEL\<524\> WLSEL\<523\> WLSEL\<522\> \
 WLSEL\<521\> WLSEL\<520\> WLSEL\<519\> WLSEL\<518\> WLSEL\<517\> WLSEL\<516\> \
 WLSEL\<515\> WLSEL\<514\> WLSEL\<513\> WLSEL\<512\> SEL3\<1\> WLSEL\<511\> \
 WLSEL\<510\> WLSEL\<509\> WLSEL\<508\> WLSEL\<507\> WLSEL\<506\> WLSEL\<505\> \
 WLSEL\<504\> WLSEL\<503\> WLSEL\<502\> WLSEL\<501\> WLSEL\<500\> WLSEL\<499\> \
 WLSEL\<498\> WLSEL\<497\> WLSEL\<496\> WLSEL\<495\> WLSEL\<494\> WLSEL\<493\> \
 WLSEL\<492\> WLSEL\<491\> WLSEL\<490\> WLSEL\<489\> WLSEL\<488\> WLSEL\<487\> \
 WLSEL\<486\> WLSEL\<485\> WLSEL\<484\> WLSEL\<483\> WLSEL\<482\> WLSEL\<481\> \
 WLSEL\<480\> WLSEL\<479\> WLSEL\<478\> WLSEL\<477\> WLSEL\<476\> WLSEL\<475\> \
 WLSEL\<474\> WLSEL\<473\> WLSEL\<472\> WLSEL\<471\> WLSEL\<470\> WLSEL\<469\> \
 WLSEL\<468\> WLSEL\<467\> WLSEL\<466\> WLSEL\<465\> WLSEL\<464\> WLSEL\<463\> \
 WLSEL\<462\> WLSEL\<461\> WLSEL\<460\> WLSEL\<459\> WLSEL\<458\> WLSEL\<457\> \
 WLSEL\<456\> WLSEL\<455\> WLSEL\<454\> WLSEL\<453\> WLSEL\<452\> WLSEL\<451\> \
 WLSEL\<450\> WLSEL\<449\> WLSEL\<448\> WLSEL\<447\> WLSEL\<446\> WLSEL\<445\> \
 WLSEL\<444\> WLSEL\<443\> WLSEL\<442\> WLSEL\<441\> WLSEL\<440\> WLSEL\<439\> \
 WLSEL\<438\> WLSEL\<437\> WLSEL\<436\> WLSEL\<435\> WLSEL\<434\> WLSEL\<433\> \
 WLSEL\<432\> WLSEL\<431\> WLSEL\<430\> WLSEL\<429\> WLSEL\<428\> WLSEL\<427\> \
 WLSEL\<426\> WLSEL\<425\> WLSEL\<424\> WLSEL\<423\> WLSEL\<422\> WLSEL\<421\> \
 WLSEL\<420\> WLSEL\<419\> WLSEL\<418\> WLSEL\<417\> WLSEL\<416\> WLSEL\<415\> \
 WLSEL\<414\> WLSEL\<413\> WLSEL\<412\> WLSEL\<411\> WLSEL\<410\> WLSEL\<409\> \
 WLSEL\<408\> WLSEL\<407\> WLSEL\<406\> WLSEL\<405\> WLSEL\<404\> WLSEL\<403\> \
 WLSEL\<402\> WLSEL\<401\> WLSEL\<400\> WLSEL\<399\> WLSEL\<398\> WLSEL\<397\> \
 WLSEL\<396\> WLSEL\<395\> WLSEL\<394\> WLSEL\<393\> WLSEL\<392\> WLSEL\<391\> \
 WLSEL\<390\> WLSEL\<389\> WLSEL\<388\> WLSEL\<387\> WLSEL\<386\> WLSEL\<385\> \
 WLSEL\<384\> WLSEL\<383\> WLSEL\<382\> WLSEL\<381\> WLSEL\<380\> WLSEL\<379\> \
 WLSEL\<378\> WLSEL\<377\> WLSEL\<376\> WLSEL\<375\> WLSEL\<374\> WLSEL\<373\> \
 WLSEL\<372\> WLSEL\<371\> WLSEL\<370\> WLSEL\<369\> WLSEL\<368\> WLSEL\<367\> \
 WLSEL\<366\> WLSEL\<365\> WLSEL\<364\> WLSEL\<363\> WLSEL\<362\> WLSEL\<361\> \
 WLSEL\<360\> WLSEL\<359\> WLSEL\<358\> WLSEL\<357\> WLSEL\<356\> WLSEL\<355\> \
 WLSEL\<354\> WLSEL\<353\> WLSEL\<352\> WLSEL\<351\> WLSEL\<350\> WLSEL\<349\> \
 WLSEL\<348\> WLSEL\<347\> WLSEL\<346\> WLSEL\<345\> WLSEL\<344\> WLSEL\<343\> \
 WLSEL\<342\> WLSEL\<341\> WLSEL\<340\> WLSEL\<339\> WLSEL\<338\> WLSEL\<337\> \
 WLSEL\<336\> WLSEL\<335\> WLSEL\<334\> WLSEL\<333\> WLSEL\<332\> WLSEL\<331\> \
 WLSEL\<330\> WLSEL\<329\> WLSEL\<328\> WLSEL\<327\> WLSEL\<326\> WLSEL\<325\> \
 WLSEL\<324\> WLSEL\<323\> WLSEL\<322\> WLSEL\<321\> WLSEL\<320\> WLSEL\<319\> \
 WLSEL\<318\> WLSEL\<317\> WLSEL\<316\> WLSEL\<315\> WLSEL\<314\> WLSEL\<313\> \
 WLSEL\<312\> WLSEL\<311\> WLSEL\<310\> WLSEL\<309\> WLSEL\<308\> WLSEL\<307\> \
 WLSEL\<306\> WLSEL\<305\> WLSEL\<304\> WLSEL\<303\> WLSEL\<302\> WLSEL\<301\> \
 WLSEL\<300\> WLSEL\<299\> WLSEL\<298\> WLSEL\<297\> WLSEL\<296\> WLSEL\<295\> \
 WLSEL\<294\> WLSEL\<293\> WLSEL\<292\> WLSEL\<291\> WLSEL\<290\> WLSEL\<289\> \
 WLSEL\<288\> WLSEL\<287\> WLSEL\<286\> WLSEL\<285\> WLSEL\<284\> WLSEL\<283\> \
 WLSEL\<282\> WLSEL\<281\> WLSEL\<280\> WLSEL\<279\> WLSEL\<278\> WLSEL\<277\> \
 WLSEL\<276\> WLSEL\<275\> WLSEL\<274\> WLSEL\<273\> WLSEL\<272\> WLSEL\<271\> \
 WLSEL\<270\> WLSEL\<269\> WLSEL\<268\> WLSEL\<267\> WLSEL\<266\> WLSEL\<265\> \
 WLSEL\<264\> WLSEL\<263\> WLSEL\<262\> WLSEL\<261\> WLSEL\<260\> WLSEL\<259\> \
 WLSEL\<258\> WLSEL\<257\> WLSEL\<256\> SEL3\<0\> WLSEL\<255\> WLSEL\<254\> \
 WLSEL\<253\> WLSEL\<252\> WLSEL\<251\> WLSEL\<250\> WLSEL\<249\> WLSEL\<248\> \
 WLSEL\<247\> WLSEL\<246\> WLSEL\<245\> WLSEL\<244\> WLSEL\<243\> WLSEL\<242\> \
 WLSEL\<241\> WLSEL\<240\> WLSEL\<239\> WLSEL\<238\> WLSEL\<237\> WLSEL\<236\> \
 WLSEL\<235\> WLSEL\<234\> WLSEL\<233\> WLSEL\<232\> WLSEL\<231\> WLSEL\<230\> \
 WLSEL\<229\> WLSEL\<228\> WLSEL\<227\> WLSEL\<226\> WLSEL\<225\> WLSEL\<224\> \
 WLSEL\<223\> WLSEL\<222\> WLSEL\<221\> WLSEL\<220\> WLSEL\<219\> WLSEL\<218\> \
 WLSEL\<217\> WLSEL\<216\> WLSEL\<215\> WLSEL\<214\> WLSEL\<213\> WLSEL\<212\> \
 WLSEL\<211\> WLSEL\<210\> WLSEL\<209\> WLSEL\<208\> WLSEL\<207\> WLSEL\<206\> \
 WLSEL\<205\> WLSEL\<204\> WLSEL\<203\> WLSEL\<202\> WLSEL\<201\> WLSEL\<200\> \
 WLSEL\<199\> WLSEL\<198\> WLSEL\<197\> WLSEL\<196\> WLSEL\<195\> WLSEL\<194\> \
 WLSEL\<193\> WLSEL\<192\> WLSEL\<191\> WLSEL\<190\> WLSEL\<189\> WLSEL\<188\> \
 WLSEL\<187\> WLSEL\<186\> WLSEL\<185\> WLSEL\<184\> WLSEL\<183\> WLSEL\<182\> \
 WLSEL\<181\> WLSEL\<180\> WLSEL\<179\> WLSEL\<178\> WLSEL\<177\> WLSEL\<176\> \
 WLSEL\<175\> WLSEL\<174\> WLSEL\<173\> WLSEL\<172\> WLSEL\<171\> WLSEL\<170\> \
 WLSEL\<169\> WLSEL\<168\> WLSEL\<167\> WLSEL\<166\> WLSEL\<165\> WLSEL\<164\> \
 WLSEL\<163\> WLSEL\<162\> WLSEL\<161\> WLSEL\<160\> WLSEL\<159\> WLSEL\<158\> \
 WLSEL\<157\> WLSEL\<156\> WLSEL\<155\> WLSEL\<154\> WLSEL\<153\> WLSEL\<152\> \
 WLSEL\<151\> WLSEL\<150\> WLSEL\<149\> WLSEL\<148\> WLSEL\<147\> WLSEL\<146\> \
 WLSEL\<145\> WLSEL\<144\> WLSEL\<143\> WLSEL\<142\> WLSEL\<141\> WLSEL\<140\> \
 WLSEL\<139\> WLSEL\<138\> WLSEL\<137\> WLSEL\<136\> WLSEL\<135\> WLSEL\<134\> \
 WLSEL\<133\> WLSEL\<132\> WLSEL\<131\> WLSEL\<130\> WLSEL\<129\> WLSEL\<128\> \
 WLSEL\<127\> WLSEL\<126\> WLSEL\<125\> WLSEL\<124\> WLSEL\<123\> WLSEL\<122\> \
 WLSEL\<121\> WLSEL\<120\> WLSEL\<119\> WLSEL\<118\> WLSEL\<117\> WLSEL\<116\> \
 WLSEL\<115\> WLSEL\<114\> WLSEL\<113\> WLSEL\<112\> WLSEL\<111\> WLSEL\<110\> \
 WLSEL\<109\> WLSEL\<108\> WLSEL\<107\> WLSEL\<106\> WLSEL\<105\> WLSEL\<104\> \
 WLSEL\<103\> WLSEL\<102\> WLSEL\<101\> WLSEL\<100\> WLSEL\<99\> WLSEL\<98\> \
 WLSEL\<97\> WLSEL\<96\> WLSEL\<95\> WLSEL\<94\> WLSEL\<93\> WLSEL\<92\> \
 WLSEL\<91\> WLSEL\<90\> WLSEL\<89\> WLSEL\<88\> WLSEL\<87\> WLSEL\<86\> \
 WLSEL\<85\> WLSEL\<84\> WLSEL\<83\> WLSEL\<82\> WLSEL\<81\> WLSEL\<80\> \
 WLSEL\<79\> WLSEL\<78\> WLSEL\<77\> WLSEL\<76\> WLSEL\<75\> WLSEL\<74\> \
 WLSEL\<73\> WLSEL\<72\> WLSEL\<71\> WLSEL\<70\> WLSEL\<69\> WLSEL\<68\> \
 WLSEL\<67\> WLSEL\<66\> WLSEL\<65\> WLSEL\<64\> WLSEL\<63\> WLSEL\<62\> \
 WLSEL\<61\> WLSEL\<60\> WLSEL\<59\> WLSEL\<58\> WLSEL\<57\> WLSEL\<56\> \
 WLSEL\<55\> WLSEL\<54\> WLSEL\<53\> WLSEL\<52\> WLSEL\<51\> WLSEL\<50\> \
 WLSEL\<49\> WLSEL\<48\> WLSEL\<47\> WLSEL\<46\> WLSEL\<45\> WLSEL\<44\> \
 WLSEL\<43\> WLSEL\<42\> WLSEL\<41\> WLSEL\<40\> WLSEL\<39\> WLSEL\<38\> \
 WLSEL\<37\> WLSEL\<36\> WLSEL\<35\> WLSEL\<34\> WLSEL\<33\> WLSEL\<32\> \
 WLSEL\<31\> WLSEL\<30\> WLSEL\<29\> WLSEL\<28\> WLSEL\<27\> WLSEL\<26\> \
 WLSEL\<25\> WLSEL\<24\> WLSEL\<23\> WLSEL\<22\> WLSEL\<21\> WLSEL\<20\> \
 WLSEL\<19\> WLSEL\<18\> WLSEL\<17\> WLSEL\<16\> WLSEL\<15\> WLSEL\<14\> \
 WLSEL\<13\> WLSEL\<12\> WLSEL\<11\> WLSEL\<10\> WLSEL\<9\> WLSEL\<8\> \
 WLSEL\<7\> WLSEL\<6\> WLSEL\<5\> WLSEL\<4\> WLSEL\<3\> WLSEL\<2\> WLSEL\<1\> \
 WLSEL\<0\> )
// 
// WLSEL<0>	WLSEL<0>
// WLSEL<1>	WLSEL<1>
// WLSEL<2>	WLSEL<2>
// WLSEL<3>	WLSEL<3>
// WLSEL<4>	WLSEL<4>
// WLSEL<5>	WLSEL<5>
// WLSEL<6>	WLSEL<6>
// WLSEL<7>	WLSEL<7>
// WLSEL<8>	WLSEL<8>
// WLSEL<9>	WLSEL<9>
// WLSEL<10>	WLSEL<10>
// WLSEL<11>	WLSEL<11>
// WLSEL<12>	WLSEL<12>
// WLSEL<13>	WLSEL<13>
// WLSEL<14>	WLSEL<14>
// WLSEL<15>	WLSEL<15>
// WLSEL<16>	WLSEL<16>
// WLSEL<17>	WLSEL<17>
// WLSEL<18>	WLSEL<18>
// WLSEL<19>	WLSEL<19>
// WLSEL<20>	WLSEL<20>
// WLSEL<21>	WLSEL<21>
// WLSEL<22>	WLSEL<22>
// WLSEL<23>	WLSEL<23>
// WLSEL<24>	WLSEL<24>
// WLSEL<25>	WLSEL<25>
// WLSEL<26>	WLSEL<26>
// WLSEL<27>	WLSEL<27>
// WLSEL<28>	WLSEL<28>
// WLSEL<29>	WLSEL<29>
// WLSEL<30>	WLSEL<30>
// WLSEL<31>	WLSEL<31>
// WLSEL<32>	WLSEL<32>
// WLSEL<33>	WLSEL<33>
// WLSEL<34>	WLSEL<34>
// WLSEL<35>	WLSEL<35>
// WLSEL<36>	WLSEL<36>
// WLSEL<37>	WLSEL<37>
// WLSEL<38>	WLSEL<38>
// WLSEL<39>	WLSEL<39>
// WLSEL<40>	WLSEL<40>
// WLSEL<41>	WLSEL<41>
// WLSEL<42>	WLSEL<42>
// WLSEL<43>	WLSEL<43>
// WLSEL<44>	WLSEL<44>
// WLSEL<45>	WLSEL<45>
// WLSEL<46>	WLSEL<46>
// WLSEL<47>	WLSEL<47>
// WLSEL<48>	WLSEL<48>
// WLSEL<49>	WLSEL<49>
// WLSEL<50>	WLSEL<50>
// WLSEL<51>	WLSEL<51>
// WLSEL<52>	WLSEL<52>
// WLSEL<53>	WLSEL<53>
// WLSEL<54>	WLSEL<54>
// WLSEL<55>	WLSEL<55>
// WLSEL<56>	WLSEL<56>
// WLSEL<57>	WLSEL<57>
// WLSEL<58>	WLSEL<58>
// WLSEL<59>	WLSEL<59>
// WLSEL<60>	WLSEL<60>
// WLSEL<61>	WLSEL<61>
// WLSEL<62>	WLSEL<62>
// WLSEL<63>	WLSEL<63>
// WLSEL<64>	WLSEL<64>
// WLSEL<65>	WLSEL<65>
// WLSEL<66>	WLSEL<66>
// WLSEL<67>	WLSEL<67>
// WLSEL<68>	WLSEL<68>
// WLSEL<69>	WLSEL<69>
// WLSEL<70>	WLSEL<70>
// WLSEL<71>	WLSEL<71>
// WLSEL<72>	WLSEL<72>
// WLSEL<73>	WLSEL<73>
// WLSEL<74>	WLSEL<74>
// WLSEL<75>	WLSEL<75>
// WLSEL<76>	WLSEL<76>
// WLSEL<77>	WLSEL<77>
// WLSEL<78>	WLSEL<78>
// WLSEL<79>	WLSEL<79>
// WLSEL<80>	WLSEL<80>
// WLSEL<81>	WLSEL<81>
// WLSEL<82>	WLSEL<82>
// WLSEL<83>	WLSEL<83>
// WLSEL<84>	WLSEL<84>
// WLSEL<85>	WLSEL<85>
// WLSEL<86>	WLSEL<86>
// WLSEL<87>	WLSEL<87>
// WLSEL<88>	WLSEL<88>
// WLSEL<89>	WLSEL<89>
// WLSEL<90>	WLSEL<90>
// WLSEL<91>	WLSEL<91>
// WLSEL<92>	WLSEL<92>
// WLSEL<93>	WLSEL<93>
// WLSEL<94>	WLSEL<94>
// WLSEL<95>	WLSEL<95>
// WLSEL<96>	WLSEL<96>
// WLSEL<97>	WLSEL<97>
// WLSEL<98>	WLSEL<98>
// WLSEL<99>	WLSEL<99>
// WLSEL<100>	WLSEL<100>
// WLSEL<101>	WLSEL<101>
// WLSEL<102>	WLSEL<102>
// WLSEL<103>	WLSEL<103>
// WLSEL<104>	WLSEL<104>
// WLSEL<105>	WLSEL<105>
// WLSEL<106>	WLSEL<106>
// WLSEL<107>	WLSEL<107>
// WLSEL<108>	WLSEL<108>
// WLSEL<109>	WLSEL<109>
// WLSEL<110>	WLSEL<110>
// WLSEL<111>	WLSEL<111>
// WLSEL<112>	WLSEL<112>
// WLSEL<113>	WLSEL<113>
// WLSEL<114>	WLSEL<114>
// WLSEL<115>	WLSEL<115>
// WLSEL<116>	WLSEL<116>
// WLSEL<117>	WLSEL<117>
// WLSEL<118>	WLSEL<118>
// WLSEL<119>	WLSEL<119>
// WLSEL<120>	WLSEL<120>
// WLSEL<121>	WLSEL<121>
// WLSEL<122>	WLSEL<122>
// WLSEL<123>	WLSEL<123>
// WLSEL<124>	WLSEL<124>
// WLSEL<125>	WLSEL<125>
// WLSEL<126>	WLSEL<126>
// WLSEL<127>	WLSEL<127>
// WLSEL<128>	WLSEL<128>
// WLSEL<129>	WLSEL<129>
// WLSEL<130>	WLSEL<130>
// WLSEL<131>	WLSEL<131>
// WLSEL<132>	WLSEL<132>
// WLSEL<133>	WLSEL<133>
// WLSEL<134>	WLSEL<134>
// WLSEL<135>	WLSEL<135>
// WLSEL<136>	WLSEL<136>
// WLSEL<137>	WLSEL<137>
// WLSEL<138>	WLSEL<138>
// WLSEL<139>	WLSEL<139>
// WLSEL<140>	WLSEL<140>
// WLSEL<141>	WLSEL<141>
// WLSEL<142>	WLSEL<142>
// WLSEL<143>	WLSEL<143>
// WLSEL<144>	WLSEL<144>
// WLSEL<145>	WLSEL<145>
// WLSEL<146>	WLSEL<146>
// WLSEL<147>	WLSEL<147>
// WLSEL<148>	WLSEL<148>
// WLSEL<149>	WLSEL<149>
// WLSEL<150>	WLSEL<150>
// WLSEL<151>	WLSEL<151>
// WLSEL<152>	WLSEL<152>
// WLSEL<153>	WLSEL<153>
// WLSEL<154>	WLSEL<154>
// WLSEL<155>	WLSEL<155>
// WLSEL<156>	WLSEL<156>
// WLSEL<157>	WLSEL<157>
// WLSEL<158>	WLSEL<158>
// WLSEL<159>	WLSEL<159>
// WLSEL<160>	WLSEL<160>
// WLSEL<161>	WLSEL<161>
// WLSEL<162>	WLSEL<162>
// WLSEL<163>	WLSEL<163>
// WLSEL<164>	WLSEL<164>
// WLSEL<165>	WLSEL<165>
// WLSEL<166>	WLSEL<166>
// WLSEL<167>	WLSEL<167>
// WLSEL<168>	WLSEL<168>
// WLSEL<169>	WLSEL<169>
// WLSEL<170>	WLSEL<170>
// WLSEL<171>	WLSEL<171>
// WLSEL<172>	WLSEL<172>
// WLSEL<173>	WLSEL<173>
// WLSEL<174>	WLSEL<174>
// WLSEL<175>	WLSEL<175>
// WLSEL<176>	WLSEL<176>
// WLSEL<177>	WLSEL<177>
// WLSEL<178>	WLSEL<178>
// WLSEL<179>	WLSEL<179>
// WLSEL<180>	WLSEL<180>
// WLSEL<181>	WLSEL<181>
// WLSEL<182>	WLSEL<182>
// WLSEL<183>	WLSEL<183>
// WLSEL<184>	WLSEL<184>
// WLSEL<185>	WLSEL<185>
// WLSEL<186>	WLSEL<186>
// WLSEL<187>	WLSEL<187>
// WLSEL<188>	WLSEL<188>
// WLSEL<189>	WLSEL<189>
// WLSEL<190>	WLSEL<190>
// WLSEL<191>	WLSEL<191>
// WLSEL<192>	WLSEL<192>
// WLSEL<193>	WLSEL<193>
// WLSEL<194>	WLSEL<194>
// WLSEL<195>	WLSEL<195>
// WLSEL<196>	WLSEL<196>
// WLSEL<197>	WLSEL<197>
// WLSEL<198>	WLSEL<198>
// WLSEL<199>	WLSEL<199>
// WLSEL<200>	WLSEL<200>
// WLSEL<201>	WLSEL<201>
// WLSEL<202>	WLSEL<202>
// WLSEL<203>	WLSEL<203>
// WLSEL<204>	WLSEL<204>
// WLSEL<205>	WLSEL<205>
// WLSEL<206>	WLSEL<206>
// WLSEL<207>	WLSEL<207>
// WLSEL<208>	WLSEL<208>
// WLSEL<209>	WLSEL<209>
// WLSEL<210>	WLSEL<210>
// WLSEL<211>	WLSEL<211>
// WLSEL<212>	WLSEL<212>
// WLSEL<213>	WLSEL<213>
// WLSEL<214>	WLSEL<214>
// WLSEL<215>	WLSEL<215>
// WLSEL<216>	WLSEL<216>
// WLSEL<217>	WLSEL<217>
// WLSEL<218>	WLSEL<218>
// WLSEL<219>	WLSEL<219>
// WLSEL<220>	WLSEL<220>
// WLSEL<221>	WLSEL<221>
// WLSEL<222>	WLSEL<222>
// WLSEL<223>	WLSEL<223>
// WLSEL<224>	WLSEL<224>
// WLSEL<225>	WLSEL<225>
// WLSEL<226>	WLSEL<226>
// WLSEL<227>	WLSEL<227>
// WLSEL<228>	WLSEL<228>
// WLSEL<229>	WLSEL<229>
// WLSEL<230>	WLSEL<230>
// WLSEL<231>	WLSEL<231>
// WLSEL<232>	WLSEL<232>
// WLSEL<233>	WLSEL<233>
// WLSEL<234>	WLSEL<234>
// WLSEL<235>	WLSEL<235>
// WLSEL<236>	WLSEL<236>
// WLSEL<237>	WLSEL<237>
// WLSEL<238>	WLSEL<238>
// WLSEL<239>	WLSEL<239>
// WLSEL<240>	WLSEL<240>
// WLSEL<241>	WLSEL<241>
// WLSEL<242>	WLSEL<242>
// WLSEL<243>	WLSEL<243>
// WLSEL<244>	WLSEL<244>
// WLSEL<245>	WLSEL<245>
// WLSEL<246>	WLSEL<246>
// WLSEL<247>	WLSEL<247>
// WLSEL<248>	WLSEL<248>
// WLSEL<249>	WLSEL<249>
// WLSEL<250>	WLSEL<250>
// WLSEL<251>	WLSEL<251>
// WLSEL<252>	WLSEL<252>
// WLSEL<253>	WLSEL<253>
// WLSEL<254>	WLSEL<254>
// WLSEL<255>	WLSEL<255>
// SEL3<0>	SEL3<0>
// WLSEL<256>	WLSEL<256>
// WLSEL<257>	WLSEL<257>
// WLSEL<258>	WLSEL<258>
// WLSEL<259>	WLSEL<259>
// WLSEL<260>	WLSEL<260>
// WLSEL<261>	WLSEL<261>
// WLSEL<262>	WLSEL<262>
// WLSEL<263>	WLSEL<263>
// WLSEL<264>	WLSEL<264>
// WLSEL<265>	WLSEL<265>
// WLSEL<266>	WLSEL<266>
// WLSEL<267>	WLSEL<267>
// WLSEL<268>	WLSEL<268>
// WLSEL<269>	WLSEL<269>
// WLSEL<270>	WLSEL<270>
// WLSEL<271>	WLSEL<271>
// WLSEL<272>	WLSEL<272>
// WLSEL<273>	WLSEL<273>
// WLSEL<274>	WLSEL<274>
// WLSEL<275>	WLSEL<275>
// WLSEL<276>	WLSEL<276>
// WLSEL<277>	WLSEL<277>
// WLSEL<278>	WLSEL<278>
// WLSEL<279>	WLSEL<279>
// WLSEL<280>	WLSEL<280>
// WLSEL<281>	WLSEL<281>
// WLSEL<282>	WLSEL<282>
// WLSEL<283>	WLSEL<283>
// WLSEL<284>	WLSEL<284>
// WLSEL<285>	WLSEL<285>
// WLSEL<286>	WLSEL<286>
// WLSEL<287>	WLSEL<287>
// WLSEL<288>	WLSEL<288>
// WLSEL<289>	WLSEL<289>
// WLSEL<290>	WLSEL<290>
// WLSEL<291>	WLSEL<291>
// WLSEL<292>	WLSEL<292>
// WLSEL<293>	WLSEL<293>
// WLSEL<294>	WLSEL<294>
// WLSEL<295>	WLSEL<295>
// WLSEL<296>	WLSEL<296>
// WLSEL<297>	WLSEL<297>
// WLSEL<298>	WLSEL<298>
// WLSEL<299>	WLSEL<299>
// WLSEL<300>	WLSEL<300>
// WLSEL<301>	WLSEL<301>
// WLSEL<302>	WLSEL<302>
// WLSEL<303>	WLSEL<303>
// WLSEL<304>	WLSEL<304>
// WLSEL<305>	WLSEL<305>
// WLSEL<306>	WLSEL<306>
// WLSEL<307>	WLSEL<307>
// WLSEL<308>	WLSEL<308>
// WLSEL<309>	WLSEL<309>
// WLSEL<310>	WLSEL<310>
// WLSEL<311>	WLSEL<311>
// WLSEL<312>	WLSEL<312>
// WLSEL<313>	WLSEL<313>
// WLSEL<314>	WLSEL<314>
// WLSEL<315>	WLSEL<315>
// WLSEL<316>	WLSEL<316>
// WLSEL<317>	WLSEL<317>
// WLSEL<318>	WLSEL<318>
// WLSEL<319>	WLSEL<319>
// WLSEL<320>	WLSEL<320>
// WLSEL<321>	WLSEL<321>
// WLSEL<322>	WLSEL<322>
// WLSEL<323>	WLSEL<323>
// WLSEL<324>	WLSEL<324>
// WLSEL<325>	WLSEL<325>
// WLSEL<326>	WLSEL<326>
// WLSEL<327>	WLSEL<327>
// WLSEL<328>	WLSEL<328>
// WLSEL<329>	WLSEL<329>
// WLSEL<330>	WLSEL<330>
// WLSEL<331>	WLSEL<331>
// WLSEL<332>	WLSEL<332>
// WLSEL<333>	WLSEL<333>
// WLSEL<334>	WLSEL<334>
// WLSEL<335>	WLSEL<335>
// WLSEL<336>	WLSEL<336>
// WLSEL<337>	WLSEL<337>
// WLSEL<338>	WLSEL<338>
// WLSEL<339>	WLSEL<339>
// WLSEL<340>	WLSEL<340>
// WLSEL<341>	WLSEL<341>
// WLSEL<342>	WLSEL<342>
// WLSEL<343>	WLSEL<343>
// WLSEL<344>	WLSEL<344>
// WLSEL<345>	WLSEL<345>
// WLSEL<346>	WLSEL<346>
// WLSEL<347>	WLSEL<347>
// WLSEL<348>	WLSEL<348>
// WLSEL<349>	WLSEL<349>
// WLSEL<350>	WLSEL<350>
// WLSEL<351>	WLSEL<351>
// WLSEL<352>	WLSEL<352>
// WLSEL<353>	WLSEL<353>
// WLSEL<354>	WLSEL<354>
// WLSEL<355>	WLSEL<355>
// WLSEL<356>	WLSEL<356>
// WLSEL<357>	WLSEL<357>
// WLSEL<358>	WLSEL<358>
// WLSEL<359>	WLSEL<359>
// WLSEL<360>	WLSEL<360>
// WLSEL<361>	WLSEL<361>
// WLSEL<362>	WLSEL<362>
// WLSEL<363>	WLSEL<363>
// WLSEL<364>	WLSEL<364>
// WLSEL<365>	WLSEL<365>
// WLSEL<366>	WLSEL<366>
// WLSEL<367>	WLSEL<367>
// WLSEL<368>	WLSEL<368>
// WLSEL<369>	WLSEL<369>
// WLSEL<370>	WLSEL<370>
// WLSEL<371>	WLSEL<371>
// WLSEL<372>	WLSEL<372>
// WLSEL<373>	WLSEL<373>
// WLSEL<374>	WLSEL<374>
// WLSEL<375>	WLSEL<375>
// WLSEL<376>	WLSEL<376>
// WLSEL<377>	WLSEL<377>
// WLSEL<378>	WLSEL<378>
// WLSEL<379>	WLSEL<379>
// WLSEL<380>	WLSEL<380>
// WLSEL<381>	WLSEL<381>
// WLSEL<382>	WLSEL<382>
// WLSEL<383>	WLSEL<383>
// WLSEL<384>	WLSEL<384>
// WLSEL<385>	WLSEL<385>
// WLSEL<386>	WLSEL<386>
// WLSEL<387>	WLSEL<387>
// WLSEL<388>	WLSEL<388>
// WLSEL<389>	WLSEL<389>
// WLSEL<390>	WLSEL<390>
// WLSEL<391>	WLSEL<391>
// WLSEL<392>	WLSEL<392>
// WLSEL<393>	WLSEL<393>
// WLSEL<394>	WLSEL<394>
// WLSEL<395>	WLSEL<395>
// WLSEL<396>	WLSEL<396>
// WLSEL<397>	WLSEL<397>
// WLSEL<398>	WLSEL<398>
// WLSEL<399>	WLSEL<399>
// WLSEL<400>	WLSEL<400>
// WLSEL<401>	WLSEL<401>
// WLSEL<402>	WLSEL<402>
// WLSEL<403>	WLSEL<403>
// WLSEL<404>	WLSEL<404>
// WLSEL<405>	WLSEL<405>
// WLSEL<406>	WLSEL<406>
// WLSEL<407>	WLSEL<407>
// WLSEL<408>	WLSEL<408>
// WLSEL<409>	WLSEL<409>
// WLSEL<410>	WLSEL<410>
// WLSEL<411>	WLSEL<411>
// WLSEL<412>	WLSEL<412>
// WLSEL<413>	WLSEL<413>
// WLSEL<414>	WLSEL<414>
// WLSEL<415>	WLSEL<415>
// WLSEL<416>	WLSEL<416>
// WLSEL<417>	WLSEL<417>
// WLSEL<418>	WLSEL<418>
// WLSEL<419>	WLSEL<419>
// WLSEL<420>	WLSEL<420>
// WLSEL<421>	WLSEL<421>
// WLSEL<422>	WLSEL<422>
// WLSEL<423>	WLSEL<423>
// WLSEL<424>	WLSEL<424>
// WLSEL<425>	WLSEL<425>
// WLSEL<426>	WLSEL<426>
// WLSEL<427>	WLSEL<427>
// WLSEL<428>	WLSEL<428>
// WLSEL<429>	WLSEL<429>
// WLSEL<430>	WLSEL<430>
// WLSEL<431>	WLSEL<431>
// WLSEL<432>	WLSEL<432>
// WLSEL<433>	WLSEL<433>
// WLSEL<434>	WLSEL<434>
// WLSEL<435>	WLSEL<435>
// WLSEL<436>	WLSEL<436>
// WLSEL<437>	WLSEL<437>
// WLSEL<438>	WLSEL<438>
// WLSEL<439>	WLSEL<439>
// WLSEL<440>	WLSEL<440>
// WLSEL<441>	WLSEL<441>
// WLSEL<442>	WLSEL<442>
// WLSEL<443>	WLSEL<443>
// WLSEL<444>	WLSEL<444>
// WLSEL<445>	WLSEL<445>
// WLSEL<446>	WLSEL<446>
// WLSEL<447>	WLSEL<447>
// WLSEL<448>	WLSEL<448>
// WLSEL<449>	WLSEL<449>
// WLSEL<450>	WLSEL<450>
// WLSEL<451>	WLSEL<451>
// WLSEL<452>	WLSEL<452>
// WLSEL<453>	WLSEL<453>
// WLSEL<454>	WLSEL<454>
// WLSEL<455>	WLSEL<455>
// WLSEL<456>	WLSEL<456>
// WLSEL<457>	WLSEL<457>
// WLSEL<458>	WLSEL<458>
// WLSEL<459>	WLSEL<459>
// WLSEL<460>	WLSEL<460>
// WLSEL<461>	WLSEL<461>
// WLSEL<462>	WLSEL<462>
// WLSEL<463>	WLSEL<463>
// WLSEL<464>	WLSEL<464>
// WLSEL<465>	WLSEL<465>
// WLSEL<466>	WLSEL<466>
// WLSEL<467>	WLSEL<467>
// WLSEL<468>	WLSEL<468>
// WLSEL<469>	WLSEL<469>
// WLSEL<470>	WLSEL<470>
// WLSEL<471>	WLSEL<471>
// WLSEL<472>	WLSEL<472>
// WLSEL<473>	WLSEL<473>
// WLSEL<474>	WLSEL<474>
// WLSEL<475>	WLSEL<475>
// WLSEL<476>	WLSEL<476>
// WLSEL<477>	WLSEL<477>
// WLSEL<478>	WLSEL<478>
// WLSEL<479>	WLSEL<479>
// WLSEL<480>	WLSEL<480>
// WLSEL<481>	WLSEL<481>
// WLSEL<482>	WLSEL<482>
// WLSEL<483>	WLSEL<483>
// WLSEL<484>	WLSEL<484>
// WLSEL<485>	WLSEL<485>
// WLSEL<486>	WLSEL<486>
// WLSEL<487>	WLSEL<487>
// WLSEL<488>	WLSEL<488>
// WLSEL<489>	WLSEL<489>
// WLSEL<490>	WLSEL<490>
// WLSEL<491>	WLSEL<491>
// WLSEL<492>	WLSEL<492>
// WLSEL<493>	WLSEL<493>
// WLSEL<494>	WLSEL<494>
// WLSEL<495>	WLSEL<495>
// WLSEL<496>	WLSEL<496>
// WLSEL<497>	WLSEL<497>
// WLSEL<498>	WLSEL<498>
// WLSEL<499>	WLSEL<499>
// WLSEL<500>	WLSEL<500>
// WLSEL<501>	WLSEL<501>
// WLSEL<502>	WLSEL<502>
// WLSEL<503>	WLSEL<503>
// WLSEL<504>	WLSEL<504>
// WLSEL<505>	WLSEL<505>
// WLSEL<506>	WLSEL<506>
// WLSEL<507>	WLSEL<507>
// WLSEL<508>	WLSEL<508>
// WLSEL<509>	WLSEL<509>
// WLSEL<510>	WLSEL<510>
// WLSEL<511>	WLSEL<511>
// SEL3<1>	SEL3<1>
// WLSEL<512>	WLSEL<512>
// WLSEL<513>	WLSEL<513>
// WLSEL<514>	WLSEL<514>
// WLSEL<515>	WLSEL<515>
// WLSEL<516>	WLSEL<516>
// WLSEL<517>	WLSEL<517>
// WLSEL<518>	WLSEL<518>
// WLSEL<519>	WLSEL<519>
// WLSEL<520>	WLSEL<520>
// WLSEL<521>	WLSEL<521>
// WLSEL<522>	WLSEL<522>
// WLSEL<523>	WLSEL<523>
// WLSEL<524>	WLSEL<524>
// WLSEL<525>	WLSEL<525>
// WLSEL<526>	WLSEL<526>
// WLSEL<527>	WLSEL<527>
// WLSEL<528>	WLSEL<528>
// WLSEL<529>	WLSEL<529>
// WLSEL<530>	WLSEL<530>
// WLSEL<531>	WLSEL<531>
// WLSEL<532>	WLSEL<532>
// WLSEL<533>	WLSEL<533>
// WLSEL<534>	WLSEL<534>
// WLSEL<535>	WLSEL<535>
// WLSEL<536>	WLSEL<536>
// WLSEL<537>	WLSEL<537>
// WLSEL<538>	WLSEL<538>
// WLSEL<539>	WLSEL<539>
// WLSEL<540>	WLSEL<540>
// WLSEL<541>	WLSEL<541>
// WLSEL<542>	WLSEL<542>
// WLSEL<543>	WLSEL<543>
// WLSEL<544>	WLSEL<544>
// WLSEL<545>	WLSEL<545>
// WLSEL<546>	WLSEL<546>
// WLSEL<547>	WLSEL<547>
// WLSEL<548>	WLSEL<548>
// WLSEL<549>	WLSEL<549>
// WLSEL<550>	WLSEL<550>
// WLSEL<551>	WLSEL<551>
// WLSEL<552>	WLSEL<552>
// WLSEL<553>	WLSEL<553>
// WLSEL<554>	WLSEL<554>
// WLSEL<555>	WLSEL<555>
// WLSEL<556>	WLSEL<556>
// WLSEL<557>	WLSEL<557>
// WLSEL<558>	WLSEL<558>
// WLSEL<559>	WLSEL<559>
// WLSEL<560>	WLSEL<560>
// WLSEL<561>	WLSEL<561>
// WLSEL<562>	WLSEL<562>
// WLSEL<563>	WLSEL<563>
// WLSEL<564>	WLSEL<564>
// WLSEL<565>	WLSEL<565>
// WLSEL<566>	WLSEL<566>
// WLSEL<567>	WLSEL<567>
// WLSEL<568>	WLSEL<568>
// WLSEL<569>	WLSEL<569>
// WLSEL<570>	WLSEL<570>
// WLSEL<571>	WLSEL<571>
// WLSEL<572>	WLSEL<572>
// WLSEL<573>	WLSEL<573>
// WLSEL<574>	WLSEL<574>
// WLSEL<575>	WLSEL<575>
// WLSEL<576>	WLSEL<576>
// WLSEL<577>	WLSEL<577>
// WLSEL<578>	WLSEL<578>
// WLSEL<579>	WLSEL<579>
// WLSEL<580>	WLSEL<580>
// WLSEL<581>	WLSEL<581>
// WLSEL<582>	WLSEL<582>
// WLSEL<583>	WLSEL<583>
// WLSEL<584>	WLSEL<584>
// WLSEL<585>	WLSEL<585>
// WLSEL<586>	WLSEL<586>
// WLSEL<587>	WLSEL<587>
// WLSEL<588>	WLSEL<588>
// WLSEL<589>	WLSEL<589>
// WLSEL<590>	WLSEL<590>
// WLSEL<591>	WLSEL<591>
// WLSEL<592>	WLSEL<592>
// WLSEL<593>	WLSEL<593>
// WLSEL<594>	WLSEL<594>
// WLSEL<595>	WLSEL<595>
// WLSEL<596>	WLSEL<596>
// WLSEL<597>	WLSEL<597>
// WLSEL<598>	WLSEL<598>
// WLSEL<599>	WLSEL<599>
// WLSEL<600>	WLSEL<600>
// WLSEL<601>	WLSEL<601>
// WLSEL<602>	WLSEL<602>
// WLSEL<603>	WLSEL<603>
// WLSEL<604>	WLSEL<604>
// WLSEL<605>	WLSEL<605>
// WLSEL<606>	WLSEL<606>
// WLSEL<607>	WLSEL<607>
// WLSEL<608>	WLSEL<608>
// WLSEL<609>	WLSEL<609>
// WLSEL<610>	WLSEL<610>
// WLSEL<611>	WLSEL<611>
// WLSEL<612>	WLSEL<612>
// WLSEL<613>	WLSEL<613>
// WLSEL<614>	WLSEL<614>
// WLSEL<615>	WLSEL<615>
// WLSEL<616>	WLSEL<616>
// WLSEL<617>	WLSEL<617>
// WLSEL<618>	WLSEL<618>
// WLSEL<619>	WLSEL<619>
// WLSEL<620>	WLSEL<620>
// WLSEL<621>	WLSEL<621>
// WLSEL<622>	WLSEL<622>
// WLSEL<623>	WLSEL<623>
// WLSEL<624>	WLSEL<624>
// WLSEL<625>	WLSEL<625>
// WLSEL<626>	WLSEL<626>
// WLSEL<627>	WLSEL<627>
// WLSEL<628>	WLSEL<628>
// WLSEL<629>	WLSEL<629>
// WLSEL<630>	WLSEL<630>
// WLSEL<631>	WLSEL<631>
// WLSEL<632>	WLSEL<632>
// WLSEL<633>	WLSEL<633>
// WLSEL<634>	WLSEL<634>