// File: /home/edauser0/ayigit/RowDecoder_Project/CDS_VISIO/project_pex/Post_L4_256t4_Text/spectreText/spectre.scs.POST_L4_256T4_EX.pxi
// Created: Tue Dec 21 12:53:14 2021
// 
simulator lang=spectre
x_PM_POST_L4_256T4_EX\%SEL3\<3\> ( \
 N_SEL3\<3\>_XI2\<3\>\/XI2\<3\>\/XI2\<3\>\/XI2\<3\>\/RR2_pos SEL3\<3\> \
 N_SEL3\<3\>_XI2\<3\>\/XI2\<3\>\/XI2\<3\>\/XI2\<2\>\/RR2_pos SEL3\<3\> \
 N_SEL3\<3\>_XI2\<3\>\/XI2\<3\>\/XI2\<3\>\/XI2\<1\>\/RR2_pos SEL3\<3\> \
 N_SEL3\<3\>_XI2\<3\>\/XI2\<3\>\/XI2\<3\>\/XI2\<0\>\/RR2_pos SEL3\<3\> \
 N_SEL3\<3\>_XI2\<3\>\/XI2\<3\>\/XI2\<2\>\/XI2\<3\>\/RR2_pos SEL3\<3\> \
 N_SEL3\<3\>_XI2\<3\>\/XI2\<3\>\/XI2\<2\>\/XI2\<2\>\/RR2_pos SEL3\<3\> \
 N_SEL3\<3\>_XI2\<3\>\/XI2\<3\>\/XI2\<2\>\/XI2\<1\>\/RR2_pos SEL3\<3\> \
 N_SEL3\<3\>_XI2\<3\>\/XI2\<3\>\/XI2\<2\>\/XI2\<0\>\/RR2_pos SEL3\<3\> \
 N_SEL3\<3\>_XI2\<3\>\/XI2\<3\>\/XI2\<1\>\/XI2\<3\>\/RR2_pos SEL3\<3\> \
 N_SEL3\<3\>_XI2\<3\>\/XI2\<3\>\/XI2\<1\>\/XI2\<2\>\/RR2_pos SEL3\<3\> \
 N_SEL3\<3\>_XI2\<3\>\/XI2\<3\>\/XI2\<1\>\/XI2\<1\>\/RR2_pos SEL3\<3\> \
 N_SEL3\<3\>_XI2\<3\>\/XI2\<3\>\/XI2\<1\>\/XI2\<0\>\/RR2_pos SEL3\<3\> \
 N_SEL3\<3\>_XI2\<3\>\/XI2\<3\>\/XI2\<0\>\/XI2\<3\>\/RR2_pos SEL3\<3\> \
 N_SEL3\<3\>_XI2\<3\>\/XI2\<3\>\/XI2\<0\>\/XI2\<2\>\/RR2_pos SEL3\<3\> \
 N_SEL3\<3\>_XI2\<3\>\/XI2\<3\>\/XI2\<0\>\/XI2\<1\>\/RR2_pos SEL3\<3\> \
 N_SEL3\<3\>_XI2\<3\>\/XI2\<3\>\/XI2\<0\>\/XI2\<0\>\/RR2_pos SEL3\<3\> \
 N_SEL3\<3\>_XI2\<3\>\/XI2\<2\>\/XI2\<3\>\/XI2\<3\>\/RR2_pos SEL3\<3\> \
 N_SEL3\<3\>_XI2\<3\>\/XI2\<2\>\/XI2\<3\>\/XI2\<2\>\/RR2_pos SEL3\<3\> \
 N_SEL3\<3\>_XI2\<3\>\/XI2\<2\>\/XI2\<3\>\/XI2\<1\>\/RR2_pos SEL3\<3\> \
 N_SEL3\<3\>_XI2\<3\>\/XI2\<2\>\/XI2\<3\>\/XI2\<0\>\/RR2_pos SEL3\<3\> \
 N_SEL3\<3\>_XI2\<3\>\/XI2\<2\>\/XI2\<2\>\/XI2\<3\>\/RR2_pos SEL3\<3\> \
 N_SEL3\<3\>_XI2\<3\>\/XI2\<2\>\/XI2\<2\>\/XI2\<2\>\/RR2_pos SEL3\<3\> \
 N_SEL3\<3\>_XI2\<3\>\/XI2\<2\>\/XI2\<2\>\/XI2\<1\>\/RR2_pos SEL3\<3\> \
 N_SEL3\<3\>_XI2\<3\>\/XI2\<2\>\/XI2\<2\>\/XI2\<0\>\/RR2_pos SEL3\<3\> \
 N_SEL3\<3\>_XI2\<3\>\/XI2\<2\>\/XI2\<1\>\/XI2\<3\>\/RR2_pos SEL3\<3\> \
 N_SEL3\<3\>_XI2\<3\>\/XI2\<2\>\/XI2\<1\>\/XI2\<2\>\/RR2_pos SEL3\<3\> \
 N_SEL3\<3\>_XI2\<3\>\/XI2\<2\>\/XI2\<1\>\/XI2\<1\>\/RR2_pos SEL3\<3\> \
 N_SEL3\<3\>_XI2\<3\>\/XI2\<2\>\/XI2\<1\>\/XI2\<0\>\/RR2_pos SEL3\<3\> \
 N_SEL3\<3\>_XI2\<3\>\/XI2\<2\>\/XI2\<0\>\/XI2\<3\>\/RR2_pos SEL3\<3\> \
 N_SEL3\<3\>_XI2\<3\>\/XI2\<2\>\/XI2\<0\>\/XI2\<2\>\/RR2_pos SEL3\<3\> \
 N_SEL3\<3\>_XI2\<3\>\/XI2\<2\>\/XI2\<0\>\/XI2\<1\>\/RR2_pos SEL3\<3\> \
 N_SEL3\<3\>_XI2\<3\>\/XI2\<2\>\/XI2\<0\>\/XI2\<0\>\/RR2_pos SEL3\<3\> \
 N_SEL3\<3\>_XI2\<3\>\/XI2\<1\>\/XI2\<3\>\/XI2\<3\>\/RR2_pos SEL3\<3\> \
 N_SEL3\<3\>_XI2\<3\>\/XI2\<1\>\/XI2\<3\>\/XI2\<2\>\/RR2_pos SEL3\<3\> \
 N_SEL3\<3\>_XI2\<3\>\/XI2\<1\>\/XI2\<3\>\/XI2\<1\>\/RR2_pos SEL3\<3\> \
 N_SEL3\<3\>_XI2\<3\>\/XI2\<1\>\/XI2\<3\>\/XI2\<0\>\/RR2_pos SEL3\<3\> \
 N_SEL3\<3\>_XI2\<3\>\/XI2\<1\>\/XI2\<2\>\/XI2\<3\>\/RR2_pos SEL3\<3\> \
 N_SEL3\<3\>_XI2\<3\>\/XI2\<1\>\/XI2\<2\>\/XI2\<2\>\/RR2_pos SEL3\<3\> \
 N_SEL3\<3\>_XI2\<3\>\/XI2\<1\>\/XI2\<2\>\/XI2\<1\>\/RR2_pos SEL3\<3\> \
 N_SEL3\<3\>_XI2\<3\>\/XI2\<1\>\/XI2\<2\>\/XI2\<0\>\/RR2_pos SEL3\<3\> \
 N_SEL3\<3\>_XI2\<3\>\/XI2\<1\>\/XI2\<1\>\/XI2\<3\>\/RR2_pos SEL3\<3\> \
 N_SEL3\<3\>_XI2\<3\>\/XI2\<1\>\/XI2\<1\>\/XI2\<2\>\/RR2_pos SEL3\<3\> \
 N_SEL3\<3\>_XI2\<3\>\/XI2\<1\>\/XI2\<1\>\/XI2\<1\>\/RR2_pos SEL3\<3\> \
 N_SEL3\<3\>_XI2\<3\>\/XI2\<1\>\/XI2\<1\>\/XI2\<0\>\/RR2_pos SEL3\<3\> \
 N_SEL3\<3\>_XI2\<3\>\/XI2\<1\>\/XI2\<0\>\/XI2\<3\>\/RR2_pos SEL3\<3\> \
 N_SEL3\<3\>_XI2\<3\>\/XI2\<1\>\/XI2\<0\>\/XI2\<2\>\/RR2_pos SEL3\<3\> \
 N_SEL3\<3\>_XI2\<3\>\/XI2\<1\>\/XI2\<0\>\/XI2\<1\>\/RR2_pos SEL3\<3\> \
 N_SEL3\<3\>_XI2\<3\>\/XI2\<1\>\/XI2\<0\>\/XI2\<0\>\/RR2_pos SEL3\<3\> \
 N_SEL3\<3\>_XI2\<3\>\/XI2\<0\>\/XI2\<3\>\/XI2\<3\>\/RR2_pos SEL3\<3\> \
 N_SEL3\<3\>_XI2\<3\>\/XI2\<0\>\/XI2\<3\>\/XI2\<2\>\/RR2_pos SEL3\<3\> \
 N_SEL3\<3\>_XI2\<3\>\/XI2\<0\>\/XI2\<3\>\/XI2\<1\>\/RR2_pos SEL3\<3\> \
 N_SEL3\<3\>_XI2\<3\>\/XI2\<0\>\/XI2\<3\>\/XI2\<0\>\/RR2_pos SEL3\<3\> \
 N_SEL3\<3\>_XI2\<3\>\/XI2\<0\>\/XI2\<2\>\/XI2\<3\>\/RR2_pos SEL3\<3\> \
 N_SEL3\<3\>_XI2\<3\>\/XI2\<0\>\/XI2\<2\>\/XI2\<2\>\/RR2_pos SEL3\<3\> \
 N_SEL3\<3\>_XI2\<3\>\/XI2\<0\>\/XI2\<2\>\/XI2\<1\>\/RR2_pos SEL3\<3\> \
 N_SEL3\<3\>_XI2\<3\>\/XI2\<0\>\/XI2\<2\>\/XI2\<0\>\/RR2_pos SEL3\<3\> \
 N_SEL3\<3\>_XI2\<3\>\/XI2\<0\>\/XI2\<1\>\/XI2\<3\>\/RR2_pos SEL3\<3\> \
 N_SEL3\<3\>_XI2\<3\>\/XI2\<0\>\/XI2\<1\>\/XI2\<2\>\/RR2_pos SEL3\<3\> \
 N_SEL3\<3\>_XI2\<3\>\/XI2\<0\>\/XI2\<1\>\/XI2\<1\>\/RR2_pos SEL3\<3\> \
 N_SEL3\<3\>_XI2\<3\>\/XI2\<0\>\/XI2\<1\>\/XI2\<0\>\/RR2_pos SEL3\<3\> \
 N_SEL3\<3\>_XI2\<3\>\/XI2\<0\>\/XI2\<0\>\/XI2\<3\>\/RR2_pos SEL3\<3\> \
 N_SEL3\<3\>_XI2\<3\>\/XI2\<0\>\/XI2\<0\>\/XI2\<2\>\/RR2_pos SEL3\<3\> \
 N_SEL3\<3\>_XI2\<3\>\/XI2\<0\>\/XI2\<0\>\/XI2\<1\>\/RR2_pos SEL3\<3\> \
 N_SEL3\<3\>_XI2\<3\>\/XI2\<0\>\/XI2\<0\>\/XI2\<0\>\/RR2_pos SEL3\<3\> )  \
 PM_POST_L4_256T4_EX\%SEL3\<3\>
x_PM_POST_L4_256T4_EX\%SEL2\<3\> ( \
 N_SEL2\<3\>_XI2\<3\>\/XI2\<3\>\/XI2\<3\>\/XI2\<3\>\/RR1_pos SEL2\<3\> \
 N_SEL2\<3\>_XI2\<3\>\/XI2\<3\>\/XI2\<3\>\/XI2\<2\>\/RR1_pos SEL2\<3\> \
 N_SEL2\<3\>_XI2\<3\>\/XI2\<3\>\/XI2\<3\>\/XI2\<1\>\/RR1_pos SEL2\<3\> \
 N_SEL2\<3\>_XI2\<3\>\/XI2\<3\>\/XI2\<3\>\/XI2\<0\>\/RR1_pos SEL2\<3\> \
 N_SEL2\<3\>_XI2\<3\>\/XI2\<3\>\/XI2\<2\>\/XI2\<3\>\/RR1_pos SEL2\<3\> \
 N_SEL2\<3\>_XI2\<3\>\/XI2\<3\>\/XI2\<2\>\/XI2\<2\>\/RR1_pos SEL2\<3\> \
 N_SEL2\<3\>_XI2\<3\>\/XI2\<3\>\/XI2\<2\>\/XI2\<1\>\/RR1_pos SEL2\<3\> \
 N_SEL2\<3\>_XI2\<3\>\/XI2\<3\>\/XI2\<2\>\/XI2\<0\>\/RR1_pos SEL2\<3\> \
 N_SEL2\<3\>_XI2\<3\>\/XI2\<3\>\/XI2\<1\>\/XI2\<3\>\/RR1_pos SEL2\<3\> \
 N_SEL2\<3\>_XI2\<3\>\/XI2\<3\>\/XI2\<1\>\/XI2\<2\>\/RR1_pos SEL2\<3\> \
 N_SEL2\<3\>_XI2\<3\>\/XI2\<3\>\/XI2\<1\>\/XI2\<1\>\/RR1_pos SEL2\<3\> \
 N_SEL2\<3\>_XI2\<3\>\/XI2\<3\>\/XI2\<1\>\/XI2\<0\>\/RR1_pos SEL2\<3\> \
 N_SEL2\<3\>_XI2\<3\>\/XI2\<3\>\/XI2\<0\>\/XI2\<3\>\/RR1_pos SEL2\<3\> \
 N_SEL2\<3\>_XI2\<3\>\/XI2\<3\>\/XI2\<0\>\/XI2\<2\>\/RR1_pos SEL2\<3\> \
 N_SEL2\<3\>_XI2\<3\>\/XI2\<3\>\/XI2\<0\>\/XI2\<1\>\/RR1_pos SEL2\<3\> \
 N_SEL2\<3\>_XI2\<3\>\/XI2\<3\>\/XI2\<0\>\/XI2\<0\>\/RR1_pos SEL2\<3\> \
 N_SEL2\<3\>_XI2\<2\>\/XI2\<3\>\/XI2\<3\>\/XI2\<3\>\/RR1_pos SEL2\<3\> \
 N_SEL2\<3\>_XI2\<2\>\/XI2\<3\>\/XI2\<3\>\/XI2\<2\>\/RR1_pos SEL2\<3\> \
 N_SEL2\<3\>_XI2\<2\>\/XI2\<3\>\/XI2\<3\>\/XI2\<1\>\/RR1_pos SEL2\<3\> \
 N_SEL2\<3\>_XI2\<2\>\/XI2\<3\>\/XI2\<3\>\/XI2\<0\>\/RR1_pos SEL2\<3\> \
 N_SEL2\<3\>_XI2\<2\>\/XI2\<3\>\/XI2\<2\>\/XI2\<3\>\/RR1_pos SEL2\<3\> \
 N_SEL2\<3\>_XI2\<2\>\/XI2\<3\>\/XI2\<2\>\/XI2\<2\>\/RR1_pos SEL2\<3\> \
 N_SEL2\<3\>_XI2\<2\>\/XI2\<3\>\/XI2\<2\>\/XI2\<1\>\/RR1_pos SEL2\<3\> \
 N_SEL2\<3\>_XI2\<2\>\/XI2\<3\>\/XI2\<2\>\/XI2\<0\>\/RR1_pos SEL2\<3\> \
 N_SEL2\<3\>_XI2\<2\>\/XI2\<3\>\/XI2\<1\>\/XI2\<3\>\/RR1_pos SEL2\<3\> \
 N_SEL2\<3\>_XI2\<2\>\/XI2\<3\>\/XI2\<1\>\/XI2\<2\>\/RR1_pos SEL2\<3\> \
 N_SEL2\<3\>_XI2\<2\>\/XI2\<3\>\/XI2\<1\>\/XI2\<1\>\/RR1_pos SEL2\<3\> \
 N_SEL2\<3\>_XI2\<2\>\/XI2\<3\>\/XI2\<1\>\/XI2\<0\>\/RR1_pos SEL2\<3\> \
 N_SEL2\<3\>_XI2\<2\>\/XI2\<3\>\/XI2\<0\>\/XI2\<3\>\/RR1_pos SEL2\<3\> \
 N_SEL2\<3\>_XI2\<2\>\/XI2\<3\>\/XI2\<0\>\/XI2\<2\>\/RR1_pos SEL2\<3\> \
 N_SEL2\<3\>_XI2\<2\>\/XI2\<3\>\/XI2\<0\>\/XI2\<1\>\/RR1_pos SEL2\<3\> \
 N_SEL2\<3\>_XI2\<2\>\/XI2\<3\>\/XI2\<0\>\/XI2\<0\>\/RR1_pos SEL2\<3\> \
 N_SEL2\<3\>_XI2\<1\>\/XI2\<3\>\/XI2\<3\>\/XI2\<3\>\/RR1_pos SEL2\<3\> \
 N_SEL2\<3\>_XI2\<1\>\/XI2\<3\>\/XI2\<3\>\/XI2\<2\>\/RR1_pos SEL2\<3\> \
 N_SEL2\<3\>_XI2\<1\>\/XI2\<3\>\/XI2\<3\>\/XI2\<1\>\/RR1_pos SEL2\<3\> \
 N_SEL2\<3\>_XI2\<1\>\/XI2\<3\>\/XI2\<3\>\/XI2\<0\>\/RR1_pos SEL2\<3\> \
 N_SEL2\<3\>_XI2\<1\>\/XI2\<3\>\/XI2\<2\>\/XI2\<3\>\/RR1_pos SEL2\<3\> \
 N_SEL2\<3\>_XI2\<1\>\/XI2\<3\>\/XI2\<2\>\/XI2\<2\>\/RR1_pos SEL2\<3\> \
 N_SEL2\<3\>_XI2\<1\>\/XI2\<3\>\/XI2\<2\>\/XI2\<1\>\/RR1_pos SEL2\<3\> \
 N_SEL2\<3\>_XI2\<1\>\/XI2\<3\>\/XI2\<2\>\/XI2\<0\>\/RR1_pos SEL2\<3\> \
 N_SEL2\<3\>_XI2\<1\>\/XI2\<3\>\/XI2\<1\>\/XI2\<3\>\/RR1_pos SEL2\<3\> \
 N_SEL2\<3\>_XI2\<1\>\/XI2\<3\>\/XI2\<1\>\/XI2\<2\>\/RR1_pos SEL2\<3\> \
 N_SEL2\<3\>_XI2\<1\>\/XI2\<3\>\/XI2\<1\>\/XI2\<1\>\/RR1_pos SEL2\<3\> \
 N_SEL2\<3\>_XI2\<1\>\/XI2\<3\>\/XI2\<1\>\/XI2\<0\>\/RR1_pos SEL2\<3\> \
 N_SEL2\<3\>_XI2\<1\>\/XI2\<3\>\/XI2\<0\>\/XI2\<3\>\/RR1_pos SEL2\<3\> \
 N_SEL2\<3\>_XI2\<1\>\/XI2\<3\>\/XI2\<0\>\/XI2\<2\>\/RR1_pos SEL2\<3\> \
 N_SEL2\<3\>_XI2\<1\>\/XI2\<3\>\/XI2\<0\>\/XI2\<1\>\/RR1_pos SEL2\<3\> \
 N_SEL2\<3\>_XI2\<1\>\/XI2\<3\>\/XI2\<0\>\/XI2\<0\>\/RR1_pos SEL2\<3\> \
 N_SEL2\<3\>_XI2\<0\>\/XI2\<3\>\/XI2\<3\>\/XI2\<3\>\/RR1_pos SEL2\<3\> \
 N_SEL2\<3\>_XI2\<0\>\/XI2\<3\>\/XI2\<3\>\/XI2\<2\>\/RR1_pos SEL2\<3\> \
 N_SEL2\<3\>_XI2\<0\>\/XI2\<3\>\/XI2\<3\>\/XI2\<1\>\/RR1_pos SEL2\<3\> \
 N_SEL2\<3\>_XI2\<0\>\/XI2\<3\>\/XI2\<3\>\/XI2\<0\>\/RR1_pos SEL2\<3\> \
 N_SEL2\<3\>_XI2\<0\>\/XI2\<3\>\/XI2\<2\>\/XI2\<3\>\/RR1_pos SEL2\<3\> \
 N_SEL2\<3\>_XI2\<0\>\/XI2\<3\>\/XI2\<2\>\/XI2\<2\>\/RR1_pos SEL2\<3\> \
 N_SEL2\<3\>_XI2\<0\>\/XI2\<3\>\/XI2\<2\>\/XI2\<1\>\/RR1_pos SEL2\<3\> \
 N_SEL2\<3\>_XI2\<0\>\/XI2\<3\>\/XI2\<2\>\/XI2\<0\>\/RR1_pos SEL2\<3\> \
 N_SEL2\<3\>_XI2\<0\>\/XI2\<3\>\/XI2\<1\>\/XI2\<3\>\/RR1_pos SEL2\<3\> \
 N_SEL2\<3\>_XI2\<0\>\/XI2\<3\>\/XI2\<1\>\/XI2\<2\>\/RR1_pos SEL2\<3\> \
 N_SEL2\<3\>_XI2\<0\>\/XI2\<3\>\/XI2\<1\>\/XI2\<1\>\/RR1_pos SEL2\<3\> \
 N_SEL2\<3\>_XI2\<0\>\/XI2\<3\>\/XI2\<1\>\/XI2\<0\>\/RR1_pos SEL2\<3\> \
 N_SEL2\<3\>_XI2\<0\>\/XI2\<3\>\/XI2\<0\>\/XI2\<3\>\/RR1_pos SEL2\<3\> \
 N_SEL2\<3\>_XI2\<0\>\/XI2\<3\>\/XI2\<0\>\/XI2\<2\>\/RR1_pos SEL2\<3\> \
 N_SEL2\<3\>_XI2\<0\>\/XI2\<3\>\/XI2\<0\>\/XI2\<1\>\/RR1_pos SEL2\<3\> \
 N_SEL2\<3\>_XI2\<0\>\/XI2\<3\>\/XI2\<0\>\/XI2\<0\>\/RR1_pos SEL2\<3\> )  \
 PM_POST_L4_256T4_EX\%SEL2\<3\>
x_PM_POST_L4_256T4_EX\%SEL1\<3\> ( \
 N_SEL1\<3\>_XI2\<3\>\/XI2\<3\>\/XI2\<3\>\/XI2\<3\>\/RR0_pos SEL1\<3\> \
 N_SEL1\<3\>_XI2\<3\>\/XI2\<3\>\/XI2\<3\>\/XI2\<2\>\/RR0_pos SEL1\<3\> \
 N_SEL1\<3\>_XI2\<3\>\/XI2\<3\>\/XI2\<3\>\/XI2\<1\>\/RR0_pos SEL1\<3\> \
 N_SEL1\<3\>_XI2\<3\>\/XI2\<3\>\/XI2\<3\>\/XI2\<0\>\/RR0_pos SEL1\<3\> \
 N_SEL1\<3\>_XI2\<3\>\/XI2\<2\>\/XI2\<3\>\/XI2\<3\>\/RR0_pos SEL1\<3\> \
 N_SEL1\<3\>_XI2\<3\>\/XI2\<2\>\/XI2\<3\>\/XI2\<2\>\/RR0_pos SEL1\<3\> \
 N_SEL1\<3\>_XI2\<3\>\/XI2\<2\>\/XI2\<3\>\/XI2\<1\>\/RR0_pos SEL1\<3\> \
 N_SEL1\<3\>_XI2\<3\>\/XI2\<2\>\/XI2\<3\>\/XI2\<0\>\/RR0_pos SEL1\<3\> \
 N_SEL1\<3\>_XI2\<3\>\/XI2\<1\>\/XI2\<3\>\/XI2\<3\>\/RR0_pos SEL1\<3\> \
 N_SEL1\<3\>_XI2\<3\>\/XI2\<1\>\/XI2\<3\>\/XI2\<2\>\/RR0_pos SEL1\<3\> \
 N_SEL1\<3\>_XI2\<3\>\/XI2\<1\>\/XI2\<3\>\/XI2\<1\>\/RR0_pos SEL1\<3\> \
 N_SEL1\<3\>_XI2\<3\>\/XI2\<1\>\/XI2\<3\>\/XI2\<0\>\/RR0_pos SEL1\<3\> \
 N_SEL1\<3\>_XI2\<3\>\/XI2\<0\>\/XI2\<3\>\/XI2\<3\>\/RR0_pos SEL1\<3\> \
 N_SEL1\<3\>_XI2\<3\>\/XI2\<0\>\/XI2\<3\>\/XI2\<2\>\/RR0_pos SEL1\<3\> \
 N_SEL1\<3\>_XI2\<3\>\/XI2\<0\>\/XI2\<3\>\/XI2\<1\>\/RR0_pos SEL1\<3\> \
 N_SEL1\<3\>_XI2\<3\>\/XI2\<0\>\/XI2\<3\>\/XI2\<0\>\/RR0_pos SEL1\<3\> \
 N_SEL1\<3\>_XI2\<2\>\/XI2\<3\>\/XI2\<3\>\/XI2\<3\>\/RR0_pos SEL1\<3\> \
 N_SEL1\<3\>_XI2\<2\>\/XI2\<3\>\/XI2\<3\>\/XI2\<2\>\/RR0_pos SEL1\<3\> \
 N_SEL1\<3\>_XI2\<2\>\/XI2\<3\>\/XI2\<3\>\/XI2\<1\>\/RR0_pos SEL1\<3\> \
 N_SEL1\<3\>_XI2\<2\>\/XI2\<3\>\/XI2\<3\>\/XI2\<0\>\/RR0_pos SEL1\<3\> \
 N_SEL1\<3\>_XI2\<2\>\/XI2\<2\>\/XI2\<3\>\/XI2\<3\>\/RR0_pos SEL1\<3\> \
 N_SEL1\<3\>_XI2\<2\>\/XI2\<2\>\/XI2\<3\>\/XI2\<2\>\/RR0_pos SEL1\<3\> \
 N_SEL1\<3\>_XI2\<2\>\/XI2\<2\>\/XI2\<3\>\/XI2\<1\>\/RR0_pos SEL1\<3\> \
 N_SEL1\<3\>_XI2\<2\>\/XI2\<2\>\/XI2\<3\>\/XI2\<0\>\/RR0_pos SEL1\<3\> \
 N_SEL1\<3\>_XI2\<2\>\/XI2\<1\>\/XI2\<3\>\/XI2\<3\>\/RR0_pos SEL1\<3\> \
 N_SEL1\<3\>_XI2\<2\>\/XI2\<1\>\/XI2\<3\>\/XI2\<2\>\/RR0_pos SEL1\<3\> \
 N_SEL1\<3\>_XI2\<2\>\/XI2\<1\>\/XI2\<3\>\/XI2\<1\>\/RR0_pos SEL1\<3\> \
 N_SEL1\<3\>_XI2\<2\>\/XI2\<1\>\/XI2\<3\>\/XI2\<0\>\/RR0_pos SEL1\<3\> \
 N_SEL1\<3\>_XI2\<2\>\/XI2\<0\>\/XI2\<3\>\/XI2\<3\>\/RR0_pos SEL1\<3\> \
 N_SEL1\<3\>_XI2\<2\>\/XI2\<0\>\/XI2\<3\>\/XI2\<2\>\/RR0_pos SEL1\<3\> \
 N_SEL1\<3\>_XI2\<2\>\/XI2\<0\>\/XI2\<3\>\/XI2\<1\>\/RR0_pos SEL1\<3\> \
 N_SEL1\<3\>_XI2\<2\>\/XI2\<0\>\/XI2\<3\>\/XI2\<0\>\/RR0_pos SEL1\<3\> \
 N_SEL1\<3\>_XI2\<1\>\/XI2\<3\>\/XI2\<3\>\/XI2\<3\>\/RR0_pos SEL1\<3\> \
 N_SEL1\<3\>_XI2\<1\>\/XI2\<3\>\/XI2\<3\>\/XI2\<2\>\/RR0_pos SEL1\<3\> \
 N_SEL1\<3\>_XI2\<1\>\/XI2\<3\>\/XI2\<3\>\/XI2\<1\>\/RR0_pos SEL1\<3\> \
 N_SEL1\<3\>_XI2\<1\>\/XI2\<3\>\/XI2\<3\>\/XI2\<0\>\/RR0_pos SEL1\<3\> \
 N_SEL1\<3\>_XI2\<1\>\/XI2\<2\>\/XI2\<3\>\/XI2\<3\>\/RR0_pos SEL1\<3\> \
 N_SEL1\<3\>_XI2\<1\>\/XI2\<2\>\/XI2\<3\>\/XI2\<2\>\/RR0_pos SEL1\<3\> \
 N_SEL1\<3\>_XI2\<1\>\/XI2\<2\>\/XI2\<3\>\/XI2\<1\>\/RR0_pos SEL1\<3\> \
 N_SEL1\<3\>_XI2\<1\>\/XI2\<2\>\/XI2\<3\>\/XI2\<0\>\/RR0_pos SEL1\<3\> \
 N_SEL1\<3\>_XI2\<1\>\/XI2\<1\>\/XI2\<3\>\/XI2\<3\>\/RR0_pos SEL1\<3\> \
 N_SEL1\<3\>_XI2\<1\>\/XI2\<1\>\/XI2\<3\>\/XI2\<2\>\/RR0_pos SEL1\<3\> \
 N_SEL1\<3\>_XI2\<1\>\/XI2\<1\>\/XI2\<3\>\/XI2\<1\>\/RR0_pos SEL1\<3\> \
 N_SEL1\<3\>_XI2\<1\>\/XI2\<1\>\/XI2\<3\>\/XI2\<0\>\/RR0_pos SEL1\<3\> \
 N_SEL1\<3\>_XI2\<1\>\/XI2\<0\>\/XI2\<3\>\/XI2\<3\>\/RR0_pos SEL1\<3\> \
 N_SEL1\<3\>_XI2\<1\>\/XI2\<0\>\/XI2\<3\>\/XI2\<2\>\/RR0_pos SEL1\<3\> \
 N_SEL1\<3\>_XI2\<1\>\/XI2\<0\>\/XI2\<3\>\/XI2\<1\>\/RR0_pos SEL1\<3\> \
 N_SEL1\<3\>_XI2\<1\>\/XI2\<0\>\/XI2\<3\>\/XI2\<0\>\/RR0_pos SEL1\<3\> \
 N_SEL1\<3\>_XI2\<0\>\/XI2\<3\>\/XI2\<3\>\/XI2\<3\>\/RR0_pos SEL1\<3\> \
 N_SEL1\<3\>_XI2\<0\>\/XI2\<3\>\/XI2\<3\>\/XI2\<2\>\/RR0_pos SEL1\<3\> \
 N_SEL1\<3\>_XI2\<0\>\/XI2\<3\>\/XI2\<3\>\/XI2\<1\>\/RR0_pos SEL1\<3\> \
 N_SEL1\<3\>_XI2\<0\>\/XI2\<3\>\/XI2\<3\>\/XI2\<0\>\/RR0_pos SEL1\<3\> \
 N_SEL1\<3\>_XI2\<0\>\/XI2\<2\>\/XI2\<3\>\/XI2\<3\>\/RR0_pos SEL1\<3\> \
 N_SEL1\<3\>_XI2\<0\>\/XI2\<2\>\/XI2\<3\>\/XI2\<2\>\/RR0_pos SEL1\<3\> \
 N_SEL1\<3\>_XI2\<0\>\/XI2\<2\>\/XI2\<3\>\/XI2\<1\>\/RR0_pos SEL1\<3\> \
 N_SEL1\<3\>_XI2\<0\>\/XI2\<2\>\/XI2\<3\>\/XI2\<0\>\/RR0_pos SEL1\<3\> \
 N_SEL1\<3\>_XI2\<0\>\/XI2\<1\>\/XI2\<3\>\/XI2\<3\>\/RR0_pos SEL1\<3\> \
 N_SEL1\<3\>_XI2\<0\>\/XI2\<1\>\/XI2\<3\>\/XI2\<2\>\/RR0_pos SEL1\<3\> \
 N_SEL1\<3\>_XI2\<0\>\/XI2\<1\>\/XI2\<3\>\/XI2\<1\>\/RR0_pos SEL1\<3\> \
 N_SEL1\<3\>_XI2\<0\>\/XI2\<1\>\/XI2\<3\>\/XI2\<0\>\/RR0_pos SEL1\<3\> \
 N_SEL1\<3\>_XI2\<0\>\/XI2\<0\>\/XI2\<3\>\/XI2\<3\>\/RR0_pos SEL1\<3\> \
 N_SEL1\<3\>_XI2\<0\>\/XI2\<0\>\/XI2\<3\>\/XI2\<2\>\/RR0_pos SEL1\<3\> \
 N_SEL1\<3\>_XI2\<0\>\/XI2\<0\>\/XI2\<3\>\/XI2\<1\>\/RR0_pos SEL1\<3\> \
 N_SEL1\<3\>_XI2\<0\>\/XI2\<0\>\/XI2\<3\>\/XI2\<0\>\/RR0_pos SEL1\<3\> )  \
 PM_POST_L4_256T4_EX\%SEL1\<3\>
x_PM_POST_L4_256T4_EX\%SEL0\<3\> ( \
 N_SEL0\<3\>_XI2\<3\>\/XI2\<3\>\/XI2\<3\>\/XI2\<3\>\/RI2_pos SEL0\<3\> \
 N_SEL0\<3\>_XI2\<3\>\/XI2\<3\>\/XI2\<2\>\/XI2\<3\>\/RI2_pos SEL0\<3\> \
 N_SEL0\<3\>_XI2\<3\>\/XI2\<3\>\/XI2\<1\>\/XI2\<3\>\/RI2_pos SEL0\<3\> \
 N_SEL0\<3\>_XI2\<3\>\/XI2\<3\>\/XI2\<0\>\/XI2\<3\>\/RI2_pos SEL0\<3\> \
 N_SEL0\<3\>_XI2\<3\>\/XI2\<2\>\/XI2\<3\>\/XI2\<3\>\/RI2_pos SEL0\<3\> \
 N_SEL0\<3\>_XI2\<3\>\/XI2\<2\>\/XI2\<2\>\/XI2\<3\>\/RI2_pos SEL0\<3\> \
 N_SEL0\<3\>_XI2\<3\>\/XI2\<2\>\/XI2\<1\>\/XI2\<3\>\/RI2_pos SEL0\<3\> \
 N_SEL0\<3\>_XI2\<3\>\/XI2\<2\>\/XI2\<0\>\/XI2\<3\>\/RI2_pos SEL0\<3\> \
 N_SEL0\<3\>_XI2\<3\>\/XI2\<1\>\/XI2\<3\>\/XI2\<3\>\/RI2_pos SEL0\<3\> \
 N_SEL0\<3\>_XI2\<3\>\/XI2\<1\>\/XI2\<2\>\/XI2\<3\>\/RI2_pos SEL0\<3\> \
 N_SEL0\<3\>_XI2\<3\>\/XI2\<1\>\/XI2\<1\>\/XI2\<3\>\/RI2_pos SEL0\<3\> \
 N_SEL0\<3\>_XI2\<3\>\/XI2\<1\>\/XI2\<0\>\/XI2\<3\>\/RI2_pos SEL0\<3\> \
 N_SEL0\<3\>_XI2\<3\>\/XI2\<0\>\/XI2\<3\>\/XI2\<3\>\/RI2_pos SEL0\<3\> \
 N_SEL0\<3\>_XI2\<3\>\/XI2\<0\>\/XI2\<2\>\/XI2\<3\>\/RI2_pos SEL0\<3\> \
 N_SEL0\<3\>_XI2\<3\>\/XI2\<0\>\/XI2\<1\>\/XI2\<3\>\/RI2_pos SEL0\<3\> \
 N_SEL0\<3\>_XI2\<3\>\/XI2\<0\>\/XI2\<0\>\/XI2\<3\>\/RI2_pos SEL0\<3\> \
 N_SEL0\<3\>_XI2\<2\>\/XI2\<3\>\/XI2\<3\>\/XI2\<3\>\/RI2_pos SEL0\<3\> \
 N_SEL0\<3\>_XI2\<2\>\/XI2\<3\>\/XI2\<2\>\/XI2\<3\>\/RI2_pos SEL0\<3\> \
 N_SEL0\<3\>_XI2\<2\>\/XI2\<3\>\/XI2\<1\>\/XI2\<3\>\/RI2_pos SEL0\<3\> \
 N_SEL0\<3\>_XI2\<2\>\/XI2\<3\>\/XI2\<0\>\/XI2\<3\>\/RI2_pos SEL0\<3\> \
 N_SEL0\<3\>_XI2\<2\>\/XI2\<2\>\/XI2\<3\>\/XI2\<3\>\/RI2_pos SEL0\<3\> \
 N_SEL0\<3\>_XI2\<2\>\/XI2\<2\>\/XI2\<2\>\/XI2\<3\>\/RI2_pos SEL0\<3\> \
 N_SEL0\<3\>_XI2\<2\>\/XI2\<2\>\/XI2\<1\>\/XI2\<3\>\/RI2_pos SEL0\<3\> \
 N_SEL0\<3\>_XI2\<2\>\/XI2\<2\>\/XI2\<0\>\/XI2\<3\>\/RI2_pos SEL0\<3\> \
 N_SEL0\<3\>_XI2\<2\>\/XI2\<1\>\/XI2\<3\>\/XI2\<3\>\/RI2_pos SEL0\<3\> \
 N_SEL0\<3\>_XI2\<2\>\/XI2\<1\>\/XI2\<2\>\/XI2\<3\>\/RI2_pos SEL0\<3\> \
 N_SEL0\<3\>_XI2\<2\>\/XI2\<1\>\/XI2\<1\>\/XI2\<3\>\/RI2_pos SEL0\<3\> \
 N_SEL0\<3\>_XI2\<2\>\/XI2\<1\>\/XI2\<0\>\/XI2\<3\>\/RI2_pos SEL0\<3\> \
 N_SEL0\<3\>_XI2\<2\>\/XI2\<0\>\/XI2\<3\>\/XI2\<3\>\/RI2_pos SEL0\<3\> \
 N_SEL0\<3\>_XI2\<2\>\/XI2\<0\>\/XI2\<2\>\/XI2\<3\>\/RI2_pos SEL0\<3\> \
 N_SEL0\<3\>_XI2\<2\>\/XI2\<0\>\/XI2\<1\>\/XI2\<3\>\/RI2_pos SEL0\<3\> \
 N_SEL0\<3\>_XI2\<2\>\/XI2\<0\>\/XI2\<0\>\/XI2\<3\>\/RI2_pos SEL0\<3\> \
 N_SEL0\<3\>_XI2\<1\>\/XI2\<3\>\/XI2\<3\>\/XI2\<3\>\/RI2_pos SEL0\<3\> \
 N_SEL0\<3\>_XI2\<1\>\/XI2\<3\>\/XI2\<2\>\/XI2\<3\>\/RI2_pos SEL0\<3\> \
 N_SEL0\<3\>_XI2\<1\>\/XI2\<3\>\/XI2\<1\>\/XI2\<3\>\/RI2_pos SEL0\<3\> \
 N_SEL0\<3\>_XI2\<1\>\/XI2\<3\>\/XI2\<0\>\/XI2\<3\>\/RI2_pos SEL0\<3\> \
 N_SEL0\<3\>_XI2\<1\>\/XI2\<2\>\/XI2\<3\>\/XI2\<3\>\/RI2_pos SEL0\<3\> \
 N_SEL0\<3\>_XI2\<1\>\/XI2\<2\>\/XI2\<2\>\/XI2\<3\>\/RI2_pos SEL0\<3\> \
 N_SEL0\<3\>_XI2\<1\>\/XI2\<2\>\/XI2\<1\>\/XI2\<3\>\/RI2_pos SEL0\<3\> \
 N_SEL0\<3\>_XI2\<1\>\/XI2\<2\>\/XI2\<0\>\/XI2\<3\>\/RI2_pos SEL0\<3\> \
 N_SEL0\<3\>_XI2\<1\>\/XI2\<1\>\/XI2\<3\>\/XI2\<3\>\/RI2_pos SEL0\<3\> \
 N_SEL0\<3\>_XI2\<1\>\/XI2\<1\>\/XI2\<2\>\/XI2\<3\>\/RI2_pos SEL0\<3\> \
 N_SEL0\<3\>_XI2\<1\>\/XI2\<1\>\/XI2\<1\>\/XI2\<3\>\/RI2_pos SEL0\<3\> \
 N_SEL0\<3\>_XI2\<1\>\/XI2\<1\>\/XI2\<0\>\/XI2\<3\>\/RI2_pos SEL0\<3\> \
 N_SEL0\<3\>_XI2\<1\>\/XI2\<0\>\/XI2\<3\>\/XI2\<3\>\/RI2_pos SEL0\<3\> \
 N_SEL0\<3\>_XI2\<1\>\/XI2\<0\>\/XI2\<2\>\/XI2\<3\>\/RI2_pos SEL0\<3\> \
 N_SEL0\<3\>_XI2\<1\>\/XI2\<0\>\/XI2\<1\>\/XI2\<3\>\/RI2_pos SEL0\<3\> \
 N_SEL0\<3\>_XI2\<1\>\/XI2\<0\>\/XI2\<0\>\/XI2\<3\>\/RI2_pos SEL0\<3\> \
 N_SEL0\<3\>_XI2\<0\>\/XI2\<3\>\/XI2\<3\>\/XI2\<3\>\/RI2_pos SEL0\<3\> \
 N_SEL0\<3\>_XI2\<0\>\/XI2\<3\>\/XI2\<2\>\/XI2\<3\>\/RI2_pos SEL0\<3\> \
 N_SEL0\<3\>_XI2\<0\>\/XI2\<3\>\/XI2\<1\>\/XI2\<3\>\/RI2_pos SEL0\<3\> \
 N_SEL0\<3\>_XI2\<0\>\/XI2\<3\>\/XI2\<0\>\/XI2\<3\>\/RI2_pos SEL0\<3\> \
 N_SEL0\<3\>_XI2\<0\>\/XI2\<2\>\/XI2\<3\>\/XI2\<3\>\/RI2_pos SEL0\<3\> \
 N_SEL0\<3\>_XI2\<0\>\/XI2\<2\>\/XI2\<2\>\/XI2\<3\>\/RI2_pos SEL0\<3\> \
 N_SEL0\<3\>_XI2\<0\>\/XI2\<2\>\/XI2\<1\>\/XI2\<3\>\/RI2_pos SEL0\<3\> \
 N_SEL0\<3\>_XI2\<0\>\/XI2\<2\>\/XI2\<0\>\/XI2\<3\>\/RI2_pos SEL0\<3\> \
 N_SEL0\<3\>_XI2\<0\>\/XI2\<1\>\/XI2\<3\>\/XI2\<3\>\/RI2_pos SEL0\<3\> \
 N_SEL0\<3\>_XI2\<0\>\/XI2\<1\>\/XI2\<2\>\/XI2\<3\>\/RI2_pos SEL0\<3\> \
 N_SEL0\<3\>_XI2\<0\>\/XI2\<1\>\/XI2\<1\>\/XI2\<3\>\/RI2_pos SEL0\<3\> \
 N_SEL0\<3\>_XI2\<0\>\/XI2\<1\>\/XI2\<0\>\/XI2\<3\>\/RI2_pos SEL0\<3\> \
 N_SEL0\<3\>_XI2\<0\>\/XI2\<0\>\/XI2\<3\>\/XI2\<3\>\/RI2_pos SEL0\<3\> \
 N_SEL0\<3\>_XI2\<0\>\/XI2\<0\>\/XI2\<2\>\/XI2\<3\>\/RI2_pos SEL0\<3\> \
 N_SEL0\<3\>_XI2\<0\>\/XI2\<0\>\/XI2\<1\>\/XI2\<3\>\/RI2_pos SEL0\<3\> \
 N_SEL0\<3\>_XI2\<0\>\/XI2\<0\>\/XI2\<0\>\/XI2\<3\>\/RI2_pos SEL0\<3\> )  \
 PM_POST_L4_256T4_EX\%SEL0\<3\>
x_PM_POST_L4_256T4_EX\%SEL0\<2\> ( \
 N_SEL0\<2\>_XI2\<3\>\/XI2\<3\>\/XI2\<3\>\/XI2\<2\>\/RI2_pos SEL0\<2\> \
 N_SEL0\<2\>_XI2\<3\>\/XI2\<3\>\/XI2\<2\>\/XI2\<2\>\/RI2_pos SEL0\<2\> \
 N_SEL0\<2\>_XI2\<3\>\/XI2\<3\>\/XI2\<1\>\/XI2\<2\>\/RI2_pos SEL0\<2\> \
 N_SEL0\<2\>_XI2\<3\>\/XI2\<3\>\/XI2\<0\>\/XI2\<2\>\/RI2_pos SEL0\<2\> \
 N_SEL0\<2\>_XI2\<3\>\/XI2\<2\>\/XI2\<3\>\/XI2\<2\>\/RI2_pos SEL0\<2\> \
 N_SEL0\<2\>_XI2\<3\>\/XI2\<2\>\/XI2\<2\>\/XI2\<2\>\/RI2_pos SEL0\<2\> \
 N_SEL0\<2\>_XI2\<3\>\/XI2\<2\>\/XI2\<1\>\/XI2\<2\>\/RI2_pos SEL0\<2\> \
 N_SEL0\<2\>_XI2\<3\>\/XI2\<2\>\/XI2\<0\>\/XI2\<2\>\/RI2_pos SEL0\<2\> \
 N_SEL0\<2\>_XI2\<3\>\/XI2\<1\>\/XI2\<3\>\/XI2\<2\>\/RI2_pos SEL0\<2\> \
 N_SEL0\<2\>_XI2\<3\>\/XI2\<1\>\/XI2\<2\>\/XI2\<2\>\/RI2_pos SEL0\<2\> \
 N_SEL0\<2\>_XI2\<3\>\/XI2\<1\>\/XI2\<1\>\/XI2\<2\>\/RI2_pos SEL0\<2\> \
 N_SEL0\<2\>_XI2\<3\>\/XI2\<1\>\/XI2\<0\>\/XI2\<2\>\/RI2_pos SEL0\<2\> \
 N_SEL0\<2\>_XI2\<3\>\/XI2\<0\>\/XI2\<3\>\/XI2\<2\>\/RI2_pos SEL0\<2\> \
 N_SEL0\<2\>_XI2\<3\>\/XI2\<0\>\/XI2\<2\>\/XI2\<2\>\/RI2_pos SEL0\<2\> \
 N_SEL0\<2\>_XI2\<3\>\/XI2\<0\>\/XI2\<1\>\/XI2\<2\>\/RI2_pos SEL0\<2\> \
 N_SEL0\<2\>_XI2\<3\>\/XI2\<0\>\/XI2\<0\>\/XI2\<2\>\/RI2_pos SEL0\<2\> \
 N_SEL0\<2\>_XI2\<2\>\/XI2\<3\>\/XI2\<3\>\/XI2\<2\>\/RI2_pos SEL0\<2\> \
 N_SEL0\<2\>_XI2\<2\>\/XI2\<3\>\/XI2\<2\>\/XI2\<2\>\/RI2_pos SEL0\<2\> \
 N_SEL0\<2\>_XI2\<2\>\/XI2\<3\>\/XI2\<1\>\/XI2\<2\>\/RI2_pos SEL0\<2\> \
 N_SEL0\<2\>_XI2\<2\>\/XI2\<3\>\/XI2\<0\>\/XI2\<2\>\/RI2_pos SEL0\<2\> \
 N_SEL0\<2\>_XI2\<2\>\/XI2\<2\>\/XI2\<3\>\/XI2\<2\>\/RI2_pos SEL0\<2\> \
 N_SEL0\<2\>_XI2\<2\>\/XI2\<2\>\/XI2\<2\>\/XI2\<2\>\/RI2_pos SEL0\<2\> \
 N_SEL0\<2\>_XI2\<2\>\/XI2\<2\>\/XI2\<1\>\/XI2\<2\>\/RI2_pos SEL0\<2\> \
 N_SEL0\<2\>_XI2\<2\>\/XI2\<2\>\/XI2\<0\>\/XI2\<2\>\/RI2_pos SEL0\<2\> \
 N_SEL0\<2\>_XI2\<2\>\/XI2\<1\>\/XI2\<3\>\/XI2\<2\>\/RI2_pos SEL0\<2\> \
 N_SEL0\<2\>_XI2\<2\>\/XI2\<1\>\/XI2\<2\>\/XI2\<2\>\/RI2_pos SEL0\<2\> \
 N_SEL0\<2\>_XI2\<2\>\/XI2\<1\>\/XI2\<1\>\/XI2\<2\>\/RI2_pos SEL0\<2\> \
 N_SEL0\<2\>_XI2\<2\>\/XI2\<1\>\/XI2\<0\>\/XI2\<2\>\/RI2_pos SEL0\<2\> \
 N_SEL0\<2\>_XI2\<2\>\/XI2\<0\>\/XI2\<3\>\/XI2\<2\>\/RI2_pos SEL0\<2\> \
 N_SEL0\<2\>_XI2\<2\>\/XI2\<0\>\/XI2\<2\>\/XI2\<2\>\/RI2_pos SEL0\<2\> \
 N_SEL0\<2\>_XI2\<2\>\/XI2\<0\>\/XI2\<1\>\/XI2\<2\>\/RI2_pos SEL0\<2\> \
 N_SEL0\<2\>_XI2\<2\>\/XI2\<0\>\/XI2\<0\>\/XI2\<2\>\/RI2_pos SEL0\<2\> \
 N_SEL0\<2\>_XI2\<1\>\/XI2\<3\>\/XI2\<3\>\/XI2\<2\>\/RI2_pos SEL0\<2\> \
 N_SEL0\<2\>_XI2\<1\>\/XI2\<3\>\/XI2\<2\>\/XI2\<2\>\/RI2_pos SEL0\<2\> \
 N_SEL0\<2\>_XI2\<1\>\/XI2\<3\>\/XI2\<1\>\/XI2\<2\>\/RI2_pos SEL0\<2\> \
 N_SEL0\<2\>_XI2\<1\>\/XI2\<3\>\/XI2\<0\>\/XI2\<2\>\/RI2_pos SEL0\<2\> \
 N_SEL0\<2\>_XI2\<1\>\/XI2\<2\>\/XI2\<3\>\/XI2\<2\>\/RI2_pos SEL0\<2\> \
 N_SEL0\<2\>_XI2\<1\>\/XI2\<2\>\/XI2\<2\>\/XI2\<2\>\/RI2_pos SEL0\<2\> \
 N_SEL0\<2\>_XI2\<1\>\/XI2\<2\>\/XI2\<1\>\/XI2\<2\>\/RI2_pos SEL0\<2\> \
 N_SEL0\<2\>_XI2\<1\>\/XI2\<2\>\/XI2\<0\>\/XI2\<2\>\/RI2_pos SEL0\<2\> \
 N_SEL0\<2\>_XI2\<1\>\/XI2\<1\>\/XI2\<3\>\/XI2\<2\>\/RI2_pos SEL0\<2\> \
 N_SEL0\<2\>_XI2\<1\>\/XI2\<1\>\/XI2\<2\>\/XI2\<2\>\/RI2_pos SEL0\<2\> \
 N_SEL0\<2\>_XI2\<1\>\/XI2\<1\>\/XI2\<1\>\/XI2\<2\>\/RI2_pos SEL0\<2\> \
 N_SEL0\<2\>_XI2\<1\>\/XI2\<1\>\/XI2\<0\>\/XI2\<2\>\/RI2_pos SEL0\<2\> \
 N_SEL0\<2\>_XI2\<1\>\/XI2\<0\>\/XI2\<3\>\/XI2\<2\>\/RI2_pos SEL0\<2\> \
 N_SEL0\<2\>_XI2\<1\>\/XI2\<0\>\/XI2\<2\>\/XI2\<2\>\/RI2_pos SEL0\<2\> \
 N_SEL0\<2\>_XI2\<1\>\/XI2\<0\>\/XI2\<1\>\/XI2\<2\>\/RI2_pos SEL0\<2\> \
 N_SEL0\<2\>_XI2\<1\>\/XI2\<0\>\/XI2\<0\>\/XI2\<2\>\/RI2_pos SEL0\<2\> \
 N_SEL0\<2\>_XI2\<0\>\/XI2\<3\>\/XI2\<3\>\/XI2\<2\>\/RI2_pos SEL0\<2\> \
 N_SEL0\<2\>_XI2\<0\>\/XI2\<3\>\/XI2\<2\>\/XI2\<2\>\/RI2_pos SEL0\<2\> \
 N_SEL0\<2\>_XI2\<0\>\/XI2\<3\>\/XI2\<1\>\/XI2\<2\>\/RI2_pos SEL0\<2\> \
 N_SEL0\<2\>_XI2\<0\>\/XI2\<3\>\/XI2\<0\>\/XI2\<2\>\/RI2_pos SEL0\<2\> \
 N_SEL0\<2\>_XI2\<0\>\/XI2\<2\>\/XI2\<3\>\/XI2\<2\>\/RI2_pos SEL0\<2\> \
 N_SEL0\<2\>_XI2\<0\>\/XI2\<2\>\/XI2\<2\>\/XI2\<2\>\/RI2_pos SEL0\<2\> \
 N_SEL0\<2\>_XI2\<0\>\/XI2\<2\>\/XI2\<1\>\/XI2\<2\>\/RI2_pos SEL0\<2\> \
 N_SEL0\<2\>_XI2\<0\>\/XI2\<2\>\/XI2\<0\>\/XI2\<2\>\/RI2_pos SEL0\<2\> \
 N_SEL0\<2\>_XI2\<0\>\/XI2\<1\>\/XI2\<3\>\/XI2\<2\>\/RI2_pos SEL0\<2\> \
 N_SEL0\<2\>_XI2\<0\>\/XI2\<1\>\/XI2\<2\>\/XI2\<2\>\/RI2_pos SEL0\<2\> \
 N_SEL0\<2\>_XI2\<0\>\/XI2\<1\>\/XI2\<1\>\/XI2\<2\>\/RI2_pos SEL0\<2\> \
 N_SEL0\<2\>_XI2\<0\>\/XI2\<1\>\/XI2\<0\>\/XI2\<2\>\/RI2_pos SEL0\<2\> \
 N_SEL0\<2\>_XI2\<0\>\/XI2\<0\>\/XI2\<3\>\/XI2\<2\>\/RI2_pos SEL0\<2\> \
 N_SEL0\<2\>_XI2\<0\>\/XI2\<0\>\/XI2\<2\>\/XI2\<2\>\/RI2_pos SEL0\<2\> \
 N_SEL0\<2\>_XI2\<0\>\/XI2\<0\>\/XI2\<1\>\/XI2\<2\>\/RI2_pos SEL0\<2\> \
 N_SEL0\<2\>_XI2\<0\>\/XI2\<0\>\/XI2\<0\>\/XI2\<2\>\/RI2_pos SEL0\<2\> )  \
 PM_POST_L4_256T4_EX\%SEL0\<2\>
x_PM_POST_L4_256T4_EX\%SEL0\<1\> ( \
 N_SEL0\<1\>_XI2\<3\>\/XI2\<3\>\/XI2\<3\>\/XI2\<1\>\/RI2_pos SEL0\<1\> \
 N_SEL0\<1\>_XI2\<3\>\/XI2\<3\>\/XI2\<2\>\/XI2\<1\>\/RI2_pos SEL0\<1\> \
 N_SEL0\<1\>_XI2\<3\>\/XI2\<3\>\/XI2\<1\>\/XI2\<1\>\/RI2_pos SEL0\<1\> \
 N_SEL0\<1\>_XI2\<3\>\/XI2\<3\>\/XI2\<0\>\/XI2\<1\>\/RI2_pos SEL0\<1\> \
 N_SEL0\<1\>_XI2\<3\>\/XI2\<2\>\/XI2\<3\>\/XI2\<1\>\/RI2_pos SEL0\<1\> \
 N_SEL0\<1\>_XI2\<3\>\/XI2\<2\>\/XI2\<2\>\/XI2\<1\>\/RI2_pos SEL0\<1\> \
 N_SEL0\<1\>_XI2\<3\>\/XI2\<2\>\/XI2\<1\>\/XI2\<1\>\/RI2_pos SEL0\<1\> \
 N_SEL0\<1\>_XI2\<3\>\/XI2\<2\>\/XI2\<0\>\/XI2\<1\>\/RI2_pos SEL0\<1\> \
 N_SEL0\<1\>_XI2\<3\>\/XI2\<1\>\/XI2\<3\>\/XI2\<1\>\/RI2_pos SEL0\<1\> \
 N_SEL0\<1\>_XI2\<3\>\/XI2\<1\>\/XI2\<2\>\/XI2\<1\>\/RI2_pos SEL0\<1\> \
 N_SEL0\<1\>_XI2\<3\>\/XI2\<1\>\/XI2\<1\>\/XI2\<1\>\/RI2_pos SEL0\<1\> \
 N_SEL0\<1\>_XI2\<3\>\/XI2\<1\>\/XI2\<0\>\/XI2\<1\>\/RI2_pos SEL0\<1\> \
 N_SEL0\<1\>_XI2\<3\>\/XI2\<0\>\/XI2\<3\>\/XI2\<1\>\/RI2_pos SEL0\<1\> \
 N_SEL0\<1\>_XI2\<3\>\/XI2\<0\>\/XI2\<2\>\/XI2\<1\>\/RI2_pos SEL0\<1\> \
 N_SEL0\<1\>_XI2\<3\>\/XI2\<0\>\/XI2\<1\>\/XI2\<1\>\/RI2_pos SEL0\<1\> \
 N_SEL0\<1\>_XI2\<3\>\/XI2\<0\>\/XI2\<0\>\/XI2\<1\>\/RI2_pos SEL0\<1\> \
 N_SEL0\<1\>_XI2\<2\>\/XI2\<3\>\/XI2\<3\>\/XI2\<1\>\/RI2_pos SEL0\<1\> \
 N_SEL0\<1\>_XI2\<2\>\/XI2\<3\>\/XI2\<2\>\/XI2\<1\>\/RI2_pos SEL0\<1\> \
 N_SEL0\<1\>_XI2\<2\>\/XI2\<3\>\/XI2\<1\>\/XI2\<1\>\/RI2_pos SEL0\<1\> \
 N_SEL0\<1\>_XI2\<2\>\/XI2\<3\>\/XI2\<0\>\/XI2\<1\>\/RI2_pos SEL0\<1\> \
 N_SEL0\<1\>_XI2\<2\>\/XI2\<2\>\/XI2\<3\>\/XI2\<1\>\/RI2_pos SEL0\<1\> \
 N_SEL0\<1\>_XI2\<2\>\/XI2\<2\>\/XI2\<2\>\/XI2\<1\>\/RI2_pos SEL0\<1\> \
 N_SEL0\<1\>_XI2\<2\>\/XI2\<2\>\/XI2\<1\>\/XI2\<1\>\/RI2_pos SEL0\<1\> \
 N_SEL0\<1\>_XI2\<2\>\/XI2\<2\>\/XI2\<0\>\/XI2\<1\>\/RI2_pos SEL0\<1\> \
 N_SEL0\<1\>_XI2\<2\>\/XI2\<1\>\/XI2\<3\>\/XI2\<1\>\/RI2_pos SEL0\<1\> \
 N_SEL0\<1\>_XI2\<2\>\/XI2\<1\>\/XI2\<2\>\/XI2\<1\>\/RI2_pos SEL0\<1\> \
 N_SEL0\<1\>_XI2\<2\>\/XI2\<1\>\/XI2\<1\>\/XI2\<1\>\/RI2_pos SEL0\<1\> \
 N_SEL0\<1\>_XI2\<2\>\/XI2\<1\>\/XI2\<0\>\/XI2\<1\>\/RI2_pos SEL0\<1\> \
 N_SEL0\<1\>_XI2\<2\>\/XI2\<0\>\/XI2\<3\>\/XI2\<1\>\/RI2_pos SEL0\<1\> \
 N_SEL0\<1\>_XI2\<2\>\/XI2\<0\>\/XI2\<2\>\/XI2\<1\>\/RI2_pos SEL0\<1\> \
 N_SEL0\<1\>_XI2\<2\>\/XI2\<0\>\/XI2\<1\>\/XI2\<1\>\/RI2_pos SEL0\<1\> \
 N_SEL0\<1\>_XI2\<2\>\/XI2\<0\>\/XI2\<0\>\/XI2\<1\>\/RI2_pos SEL0\<1\> \
 N_SEL0\<1\>_XI2\<1\>\/XI2\<3\>\/XI2\<3\>\/XI2\<1\>\/RI2_pos SEL0\<1\> \
 N_SEL0\<1\>_XI2\<1\>\/XI2\<3\>\/XI2\<2\>\/XI2\<1\>\/RI2_pos SEL0\<1\> \
 N_SEL0\<1\>_XI2\<1\>\/XI2\<3\>\/XI2\<1\>\/XI2\<1\>\/RI2_pos SEL0\<1\> \
 N_SEL0\<1\>_XI2\<1\>\/XI2\<3\>\/XI2\<0\>\/XI2\<1\>\/RI2_pos SEL0\<1\> \
 N_SEL0\<1\>_XI2\<1\>\/XI2\<2\>\/XI2\<3\>\/XI2\<1\>\/RI2_pos SEL0\<1\> \
 N_SEL0\<1\>_XI2\<1\>\/XI2\<2\>\/XI2\<2\>\/XI2\<1\>\/RI2_pos SEL0\<1\> \
 N_SEL0\<1\>_XI2\<1\>\/XI2\<2\>\/XI2\<1\>\/XI2\<1\>\/RI2_pos SEL0\<1\> \
 N_SEL0\<1\>_XI2\<1\>\/XI2\<2\>\/XI2\<0\>\/XI2\<1\>\/RI2_pos SEL0\<1\> \
 N_SEL0\<1\>_XI2\<1\>\/XI2\<1\>\/XI2\<3\>\/XI2\<1\>\/RI2_pos SEL0\<1\> \
 N_SEL0\<1\>_XI2\<1\>\/XI2\<1\>\/XI2\<2\>\/XI2\<1\>\/RI2_pos SEL0\<1\> \
 N_SEL0\<1\>_XI2\<1\>\/XI2\<1\>\/XI2\<1\>\/XI2\<1\>\/RI2_pos SEL0\<1\> \
 N_SEL0\<1\>_XI2\<1\>\/XI2\<1\>\/XI2\<0\>\/XI2\<1\>\/RI2_pos SEL0\<1\> \
 N_SEL0\<1\>_XI2\<1\>\/XI2\<0\>\/XI2\<3\>\/XI2\<1\>\/RI2_pos SEL0\<1\> \
 N_SEL0\<1\>_XI2\<1\>\/XI2\<0\>\/XI2\<2\>\/XI2\<1\>\/RI2_pos SEL0\<1\> \
 N_SEL0\<1\>_XI2\<1\>\/XI2\<0\>\/XI2\<1\>\/XI2\<1\>\/RI2_pos SEL0\<1\> \
 N_SEL0\<1\>_XI2\<1\>\/XI2\<0\>\/XI2\<0\>\/XI2\<1\>\/RI2_pos SEL0\<1\> \
 N_SEL0\<1\>_XI2\<0\>\/XI2\<3\>\/XI2\<3\>\/XI2\<1\>\/RI2_pos SEL0\<1\> \
 N_SEL0\<1\>_XI2\<0\>\/XI2\<3\>\/XI2\<2\>\/XI2\<1\>\/RI2_pos SEL0\<1\> \
 N_SEL0\<1\>_XI2\<0\>\/XI2\<3\>\/XI2\<1\>\/XI2\<1\>\/RI2_pos SEL0\<1\> \
 N_SEL0\<1\>_XI2\<0\>\/XI2\<3\>\/XI2\<0\>\/XI2\<1\>\/RI2_pos SEL0\<1\> \
 N_SEL0\<1\>_XI2\<0\>\/XI2\<2\>\/XI2\<3\>\/XI2\<1\>\/RI2_pos SEL0\<1\> \
 N_SEL0\<1\>_XI2\<0\>\/XI2\<2\>\/XI2\<2\>\/XI2\<1\>\/RI2_pos SEL0\<1\> \
 N_SEL0\<1\>_XI2\<0\>\/XI2\<2\>\/XI2\<1\>\/XI2\<1\>\/RI2_pos SEL0\<1\> \
 N_SEL0\<1\>_XI2\<0\>\/XI2\<2\>\/XI2\<0\>\/XI2\<1\>\/RI2_pos SEL0\<1\> \
 N_SEL0\<1\>_XI2\<0\>\/XI2\<1\>\/XI2\<3\>\/XI2\<1\>\/RI2_pos SEL0\<1\> \
 N_SEL0\<1\>_XI2\<0\>\/XI2\<1\>\/XI2\<2\>\/XI2\<1\>\/RI2_pos SEL0\<1\> \
 N_SEL0\<1\>_XI2\<0\>\/XI2\<1\>\/XI2\<1\>\/XI2\<1\>\/RI2_pos SEL0\<1\> \
 N_SEL0\<1\>_XI2\<0\>\/XI2\<1\>\/XI2\<0\>\/XI2\<1\>\/RI2_pos SEL0\<1\> \
 N_SEL0\<1\>_XI2\<0\>\/XI2\<0\>\/XI2\<3\>\/XI2\<1\>\/RI2_pos SEL0\<1\> \
 N_SEL0\<1\>_XI2\<0\>\/XI2\<0\>\/XI2\<2\>\/XI2\<1\>\/RI2_pos SEL0\<1\> \
 N_SEL0\<1\>_XI2\<0\>\/XI2\<0\>\/XI2\<1\>\/XI2\<1\>\/RI2_pos SEL0\<1\> \
 N_SEL0\<1\>_XI2\<0\>\/XI2\<0\>\/XI2\<0\>\/XI2\<1\>\/RI2_pos SEL0\<1\> )  \
 PM_POST_L4_256T4_EX\%SEL0\<1\>
x_PM_POST_L4_256T4_EX\%SEL0\<0\> ( \
 N_SEL0\<0\>_XI2\<3\>\/XI2\<3\>\/XI2\<3\>\/XI2\<0\>\/RI2_pos SEL0\<0\> \
 N_SEL0\<0\>_XI2\<3\>\/XI2\<3\>\/XI2\<2\>\/XI2\<0\>\/RI2_pos SEL0\<0\> \
 N_SEL0\<0\>_XI2\<3\>\/XI2\<3\>\/XI2\<1\>\/XI2\<0\>\/RI2_pos SEL0\<0\> \
 N_SEL0\<0\>_XI2\<3\>\/XI2\<3\>\/XI2\<0\>\/XI2\<0\>\/RI2_pos SEL0\<0\> \
 N_SEL0\<0\>_XI2\<3\>\/XI2\<2\>\/XI2\<3\>\/XI2\<0\>\/RI2_pos SEL0\<0\> \
 N_SEL0\<0\>_XI2\<3\>\/XI2\<2\>\/XI2\<2\>\/XI2\<0\>\/RI2_pos SEL0\<0\> \
 N_SEL0\<0\>_XI2\<3\>\/XI2\<2\>\/XI2\<1\>\/XI2\<0\>\/RI2_pos SEL0\<0\> \
 N_SEL0\<0\>_XI2\<3\>\/XI2\<2\>\/XI2\<0\>\/XI2\<0\>\/RI2_pos SEL0\<0\> \
 N_SEL0\<0\>_XI2\<3\>\/XI2\<1\>\/XI2\<3\>\/XI2\<0\>\/RI2_pos SEL0\<0\> \
 N_SEL0\<0\>_XI2\<3\>\/XI2\<1\>\/XI2\<2\>\/XI2\<0\>\/RI2_pos SEL0\<0\> \
 N_SEL0\<0\>_XI2\<3\>\/XI2\<1\>\/XI2\<1\>\/XI2\<0\>\/RI2_pos SEL0\<0\> \
 N_SEL0\<0\>_XI2\<3\>\/XI2\<1\>\/XI2\<0\>\/XI2\<0\>\/RI2_pos SEL0\<0\> \
 N_SEL0\<0\>_XI2\<3\>\/XI2\<0\>\/XI2\<3\>\/XI2\<0\>\/RI2_pos SEL0\<0\> \
 N_SEL0\<0\>_XI2\<3\>\/XI2\<0\>\/XI2\<2\>\/XI2\<0\>\/RI2_pos SEL0\<0\> \
 N_SEL0\<0\>_XI2\<3\>\/XI2\<0\>\/XI2\<1\>\/XI2\<0\>\/RI2_pos SEL0\<0\> \
 N_SEL0\<0\>_XI2\<3\>\/XI2\<0\>\/XI2\<0\>\/XI2\<0\>\/RI2_pos SEL0\<0\> \
 N_SEL0\<0\>_XI2\<2\>\/XI2\<3\>\/XI2\<3\>\/XI2\<0\>\/RI2_pos SEL0\<0\> \