// File: /home/edauser0/ayigit/RowDecoder_Project/CDS_VISIO/project_1x/Pex_Out/spectreText/spectre.scs.pex
// Created: Fri Dec 17 14:27:19 2021
// Program "Calibre xRC"
// Version "v2020.1_17.9"
// Nominal Temperature: 25C
// Circuit Temperature: 25C
// 
simulator lang=spectre
subckt PM_POST_L8_256T8\%SEL7\<1\> ( 3 133 262 394 653 659 665 671 677 683 689 \
 695 701 707 713 719 725 731 737 743 749 755 761 767 773 779 785 791 797 803 \
 809 815 821 827 833 839 845 851 857 863 869 875 881 887 893 899 905 911 917 \
 923 929 935 941 947 953 959 965 971 977 983 989 995 1001 1007 1013 1019 1025 \
 1031 1163 1169 1175 1181 1187 1193 1199 1205 1211 1217 1223 1229 1235 1241 \
 1247 1253 1259 1265 1271 1277 1283 1289 1295 1301 1307 1313 1319 1325 1331 \
 1337 1343 1349 1355 1361 1367 1373 1379 1385 1391 1397 1403 1409 1415 1421 \
 1427 1433 1439 1445 1451 1457 1463 1469 1475 1481 1487 1493 1499 1505 1511 \
 1517 1523 1529 1535 1541 )
c0 ( 2055 0 ) capacitor c=0.138236f
c1 ( 2054 0 ) capacitor c=0.138238f
c2 ( 2052 0 ) capacitor c=0.138241f
c3 ( 2049 0 ) capacitor c=0.138243f
c4 ( 2048 0 ) capacitor c=0.138246f
c5 ( 2047 0 ) capacitor c=0.138246f
c6 ( 2044 0 ) capacitor c=0.138251f
c7 ( 2043 0 ) capacitor c=0.138251f
c8 ( 2041 0 ) capacitor c=0.138253f
c9 ( 2040 0 ) capacitor c=0.138259f
c10 ( 2039 0 ) capacitor c=0.138259f
c11 ( 2038 0 ) capacitor c=0.138222f
c12 ( 2037 0 ) capacitor c=0.138261f
c13 ( 2034 0 ) capacitor c=0.138266f
c14 ( 2033 0 ) capacitor c=0.138266f
c15 ( 2032 0 ) capacitor c=0.138269f
c16 ( 2028 0 ) capacitor c=0.138274f
c17 ( 2025 0 ) capacitor c=0.138276f
c18 ( 2021 0 ) capacitor c=0.138288f
c19 ( 2020 0 ) capacitor c=0.13829f
c20 ( 2018 0 ) capacitor c=0.138292f
c21 ( 2016 0 ) capacitor c=0.138296f
c22 ( 2015 0 ) capacitor c=0.138296f
c23 ( 2012 0 ) capacitor c=0.138301f
c24 ( 2010 0 ) capacitor c=0.138303f
c25 ( 2008 0 ) capacitor c=0.138308f
c26 ( 2006 0 ) capacitor c=0.13831f
c27 ( 2005 0 ) capacitor c=0.13831f
c28 ( 2004 0 ) capacitor c=0.138313f
c29 ( 2001 0 ) capacitor c=0.138315f
c30 ( 2000 0 ) capacitor c=0.138319f
c31 ( 1997 0 ) capacitor c=0.138321f
c32 ( 1996 0 ) capacitor c=0.138323f
c33 ( 1995 0 ) capacitor c=0.138323f
c34 ( 1992 0 ) capacitor c=0.146352f
c35 ( 1988 0 ) capacitor c=0.138141f
c36 ( 1987 0 ) capacitor c=0.138141f
c37 ( 1986 0 ) capacitor c=0.138143f
c38 ( 1983 0 ) capacitor c=0.138147f
c39 ( 1980 0 ) capacitor c=0.138152f
c40 ( 1979 0 ) capacitor c=0.138152f
c41 ( 1978 0 ) capacitor c=0.138154f
c42 ( 1977 0 ) capacitor c=0.138154f
c43 ( 1976 0 ) capacitor c=0.138159f
c44 ( 1971 0 ) capacitor c=0.138164f
c45 ( 1969 0 ) capacitor c=0.138166f
c46 ( 1966 0 ) capacitor c=0.138172f
c47 ( 1962 0 ) capacitor c=0.138176f
c48 ( 1961 0 ) capacitor c=0.138176f
c49 ( 1960 0 ) capacitor c=0.138186f
c50 ( 1956 0 ) capacitor c=0.138191f
c51 ( 1953 0 ) capacitor c=0.138193f
c52 ( 1951 0 ) capacitor c=0.138196f
c53 ( 1948 0 ) capacitor c=0.138201f
c54 ( 1947 0 ) capacitor c=0.138201f
c55 ( 1946 0 ) capacitor c=0.138203f
c56 ( 1944 0 ) capacitor c=0.138209f
c57 ( 1943 0 ) capacitor c=0.138209f
c58 ( 1942 0 ) capacitor c=0.138211f
c59 ( 1940 0 ) capacitor c=0.138214f
c60 ( 1937 0 ) capacitor c=0.138216f
c61 ( 1935 0 ) capacitor c=0.138219f
c62 ( 1930 0 ) capacitor c=0.138226f
c63 ( 1929 0 ) capacitor c=0.111495f
c64 ( 1590 0 ) capacitor c=0.100804f
c65 ( 2017 0 ) capacitor c=0.24621f
c66 ( 2056 0 ) capacitor c=0.254368f
c67 ( 2046 0 ) capacitor c=0.246166f
c68 ( 1926 0 ) capacitor c=0.135984f
c69 ( 1923 0 ) capacitor c=0.0100947f
c70 ( 1920 0 ) capacitor c=0.135984f
c71 ( 1914 0 ) capacitor c=0.135984f
c72 ( 1905 0 ) capacitor c=0.0100947f
c73 ( 1902 0 ) capacitor c=0.135984f
c74 ( 1899 0 ) capacitor c=0.135984f
c75 ( 1896 0 ) capacitor c=0.135984f
c76 ( 1893 0 ) capacitor c=0.135984f
c77 ( 1878 0 ) capacitor c=0.111531f
c78 ( 1875 0 ) capacitor c=0.135984f
c79 ( 1866 0 ) capacitor c=0.0100947f
c80 ( 1863 0 ) capacitor c=0.0100947f
c81 ( 1857 0 ) capacitor c=0.0100947f
c82 ( 1854 0 ) capacitor c=0.135984f
c83 ( 1851 0 ) capacitor c=0.0100947f
c84 ( 1845 0 ) capacitor c=0.0100947f
c85 ( 1842 0 ) capacitor c=0.0100947f
c86 ( 1836 0 ) capacitor c=0.135984f
c87 ( 1827 0 ) capacitor c=0.0100947f
c88 ( 1821 0 ) capacitor c=0.0100947f
c89 ( 1818 0 ) capacitor c=0.0100947f
c90 ( 1806 0 ) capacitor c=0.135984f
c91 ( 1800 0 ) capacitor c=0.135984f
c92 ( 1797 0 ) capacitor c=0.0100947f
c93 ( 1794 0 ) capacitor c=0.0100947f
c94 ( 1788 0 ) capacitor c=0.135984f
c95 ( 1782 0 ) capacitor c=0.135984f
c96 ( 1779 0 ) capacitor c=0.135984f
c97 ( 1776 0 ) capacitor c=0.0100947f
c98 ( 1770 0 ) capacitor c=0.135984f
c99 ( 1767 0 ) capacitor c=0.135984f
c100 ( 1758 0 ) capacitor c=0.0100947f
c101 ( 1755 0 ) capacitor c=0.0100947f
c102 ( 1746 0 ) capacitor c=0.135984f
c103 ( 1743 0 ) capacitor c=0.0100947f
c104 ( 1740 0 ) capacitor c=0.0100947f
c105 ( 1517 0 ) capacitor c=0.571893f
c106 ( 1908 0 ) capacitor c=0.261874f
c107 ( 1890 0 ) capacitor c=0.261874f
c108 ( 1469 0 ) capacitor c=0.465313f
c109 ( 1884 0 ) capacitor c=0.135984f
c110 ( 1457 0 ) capacitor c=0.587113f
c111 ( 1872 0 ) capacitor c=0.135984f
c112 ( 1433 0 ) capacitor c=0.681518f
c113 ( 1860 0 ) capacitor c=0.135984f
c114 ( 1409 0 ) capacitor c=0.587113f
c115 ( 2031 0 ) capacitor c=0.241251f
c116 ( 1848 0 ) capacitor c=0.121759f
c117 ( 1385 0 ) capacitor c=0.465313f
c118 ( 1830 0 ) capacitor c=0.261874f
c119 ( 2023 0 ) capacitor c=0.241268f
c120 ( 1824 0 ) capacitor c=0.135984f
c121 ( 1337 0 ) capacitor c=0.528258f
c122 ( 1812 0 ) capacitor c=0.135984f
c123 ( 1277 0 ) capacitor c=0.580786f
c124 ( 1253 0 ) capacitor c=0.465313f
c125 ( 1241 0 ) capacitor c=0.580786f
c126 ( 1229 0 ) capacitor c=0.580786f
c127 ( 2003 0 ) capacitor c=0.241295f
c128 ( 1764 0 ) capacitor c=0.135984f
c129 ( 1752 0 ) capacitor c=0.261874f
c130 ( 1181 0 ) capacitor c=0.587113f
c131 ( 1722 0 ) capacitor c=0.12589f
c132 ( 1985 0 ) capacitor c=0.241126f
c133 ( 1710 0 ) capacitor c=0.12589f
c134 ( 1692 0 ) capacitor c=0.12589f
c135 ( 1686 0 ) capacitor c=0.12589f
c136 ( 1662 0 ) capacitor c=0.12589f
c137 ( 1650 0 ) capacitor c=0.12589f
c138 ( 1632 0 ) capacitor c=0.12589f
c139 ( 1626 0 ) capacitor c=0.12589f
c140 ( 1608 0 ) capacitor c=0.12589f
c141 ( 1602 0 ) capacitor c=0.12589f
c142 ( 1584 0 ) capacitor c=0.12589f
c143 ( 1421 0 ) capacitor c=0.673556f
c144 ( 1301 0 ) capacitor c=0.672623f
c145 ( 1917 0 ) capacitor c=0.261874f
c146 ( 1911 0 ) capacitor c=0.135984f
c147 ( 1475 0 ) capacitor c=0.774555f
c148 ( 1887 0 ) capacitor c=0.261874f
c149 ( 1463 0 ) capacitor c=0.563345f
c150 ( 1881 0 ) capacitor c=0.261874f
c151 ( 1869 0 ) capacitor c=0.135984f
c152 ( 1415 0 ) capacitor c=0.447872f
c153 ( 1839 0 ) capacitor c=0.135984f
c154 ( 1367 0 ) capacitor c=0.447872f
c155 ( 1833 0 ) capacitor c=0.261874f
c156 ( 1355 0 ) capacitor c=0.62627f
c157 ( 1815 0 ) capacitor c=0.261874f
c158 ( 1809 0 ) capacitor c=0.135984f
c159 ( 1307 0 ) capacitor c=0.576669f
c160 ( 1803 0 ) capacitor c=0.261874f
c161 ( 1791 0 ) capacitor c=0.261874f
c162 ( 1271 0 ) capacitor c=0.554452f
c163 ( 1785 0 ) capacitor c=0.261874f
c164 ( 1773 0 ) capacitor c=0.135984f
c165 ( 1235 0 ) capacitor c=0.768834f
c166 ( 1223 0 ) capacitor c=0.563345f
c167 ( 1761 0 ) capacitor c=0.261874f
c168 ( 1749 0 ) capacitor c=0.135984f
c169 ( 1187 0 ) capacitor c=0.447879f
c170 ( 1175 0 ) capacitor c=0.447872f
c171 ( 1737 0 ) capacitor c=0.135984f
c172 ( 1731 0 ) capacitor c=0.12589f
c173 ( 1972 0 ) capacitor c=0.241146f
c174 ( 1629 0 ) capacitor c=0.12589f
c175 ( 1599 0 ) capacitor c=0.12589f
c176 ( 1587 0 ) capacitor c=0.12589f
c177 ( 1581 0 ) capacitor c=0.12589f
c178 ( 1932 0 ) capacitor c=0.241206f
c179 ( 1511 0 ) capacitor c=0.655184f
c180 ( 1325 0 ) capacitor c=0.770826f
c181 ( 1289 0 ) capacitor c=0.566045f
c182 ( 2053 0 ) capacitor c=0.24122f
c183 ( 2029 0 ) capacitor c=0.241253f
c184 ( 2014 0 ) capacitor c=0.24128f
c185 ( 1945 0 ) capacitor c=0.241185f
c186 ( 1938 0 ) capacitor c=0.241198f
c187 ( 1535 0 ) capacitor c=0.862524f
c188 ( 1373 0 ) capacitor c=0.687845f
c189 ( 2051 0 ) capacitor c=0.241223f
c190 ( 2035 0 ) capacitor c=0.241246f
c191 ( 1397 0 ) capacitor c=0.566045f
c192 ( 2009 0 ) capacitor c=0.344267f
c193 ( 2002 0 ) capacitor c=0.203849f
c194 ( 2019 0 ) capacitor c=0.347114f
c195 ( 1349 0 ) capacitor c=0.666777f
c196 ( 1283 0 ) capacitor c=0.548611f
c197 ( 2022 0 ) capacitor c=0.24127f
c198 ( 1991 0 ) capacitor c=0.241119f
c199 ( 1990 0 ) capacitor c=0.203673f
c200 ( 1974 0 ) capacitor c=0.241105f
c201 ( 1493 0 ) capacitor c=0.681518f
c202 ( 1379 0 ) capacitor c=0.777726f
c203 ( 1319 0 ) capacitor c=0.762979f
c204 ( 1295 0 ) capacitor c=0.755911f
c205 ( 1211 0 ) capacitor c=0.649337f
c206 ( 1994 0 ) capacitor c=0.34429f
c207 ( 2030 0 ) capacitor c=0.241253f
c208 ( 1952 0 ) capacitor c=0.241179f
c209 ( 1950 0 ) capacitor c=0.241181f
c210 ( 1933 0 ) capacitor c=0.241203f
c211 ( 1529 0 ) capacitor c=0.681518f
c212 ( 1445 0 ) capacitor c=0.566045f
c213 ( 1391 0 ) capacitor c=0.770652f
c214 ( 1247 0 ) capacitor c=0.611542f
c215 ( 2050 0 ) capacitor c=0.241225f
c216 ( 1959 0 ) capacitor c=0.241168f
c217 ( 2036 0 ) capacitor c=0.241246f
c218 ( 2007 0 ) capacitor c=0.241291f
c219 ( 1217 0 ) capacitor c=0.566045f
c220 ( 1205 0 ) capacitor c=0.882982f
c221 ( 1199 0 ) capacitor c=0.662242f
c222 ( 2026 0 ) capacitor c=0.34424f
c223 ( 1998 0 ) capacitor c=0.414754f
c224 ( 1936 0 ) capacitor c=0.241201f
c225 ( 1931 0 ) capacitor c=0.241206f
c226 ( 1975 0 ) capacitor c=0.241142f
c227 ( 1970 0 ) capacitor c=0.241148f
c228 ( 1941 0 ) capacitor c=0.241193f
c229 ( 1313 0 ) capacitor c=0.566045f
c230 ( 1541 0 ) capacitor c=0.532016f
c231 ( 1487 0 ) capacitor c=0.869554f
c232 ( 1989 0 ) capacitor c=0.344103f
c233 ( 1984 0 ) capacitor c=0.241129f
c234 ( 2024 0 ) capacitor c=0.34425f
c235 ( 2011 0 ) capacitor c=0.241283f
c236 ( 1958 0 ) capacitor c=0.241171f
c237 ( 1955 0 ) capacitor c=0.241173f
c238 ( 1439 0 ) capacitor c=0.655177f
c239 ( 1427 0 ) capacitor c=0.764815f
c240 ( 1193 0 ) capacitor c=0.66651f
c241 ( 1999 0 ) capacitor c=0.4522f
c242 ( 2013 0 ) capacitor c=0.24128f
c243 ( 1957 0 ) capacitor c=0.241171f
c244 ( 1505 0 ) capacitor c=0.681518f
c245 ( 1499 0 ) capacitor c=0.548605f
c246 ( 1403 0 ) capacitor c=0.656951f
c247 ( 1331 0 ) capacitor c=0.649342f
c248 ( 1982 0 ) capacitor c=0.241131f
c249 ( 1981 0 ) capacitor c=0.241131f
c250 ( 1968 0 ) capacitor c=0.447116f
c251 ( 1967 0 ) capacitor c=0.241152f
c252 ( 1965 0 ) capacitor c=0.344136f
c253 ( 2045 0 ) capacitor c=0.241231f
c254 ( 2042 0 ) capacitor c=0.342843f
c255 ( 2027 0 ) capacitor c=0.452155f
c256 ( 1451 0 ) capacitor c=0.66407f
c257 ( 1343 0 ) capacitor c=0.764802f
c258 ( 1259 0 ) capacitor c=0.764158f
c259 ( 1163 0 ) capacitor c=0.548613f
c260 ( 1725 0 ) capacitor c=0.251779f
c261 ( 1719 0 ) capacitor c=0.12589f
c262 ( 1716 0 ) capacitor c=0.272991f
c263 ( 1704 0 ) capacitor c=0.251779f
c264 ( 1701 0 ) capacitor c=0.12589f
c265 ( 1698 0 ) capacitor c=0.251779f
c266 ( 1695 0 ) capacitor c=0.12589f
c267 ( 1973 0 ) capacitor c=0.349061f
c268 ( 1677 0 ) capacitor c=0.251779f
c269 ( 1674 0 ) capacitor c=0.12589f
c270 ( 1671 0 ) capacitor c=0.12589f
c271 ( 1668 0 ) capacitor c=0.251779f
c272 ( 1665 0 ) capacitor c=0.274092f
c273 ( 1659 0 ) capacitor c=0.12589f
c274 ( 1653 0 ) capacitor c=0.251779f
c275 ( 1964 0 ) capacitor c=0.246092f
c276 ( 1963 0 ) capacitor c=0.346998f
c277 ( 1647 0 ) capacitor c=0.251779f
c278 ( 1644 0 ) capacitor c=0.12589f
c279 ( 1641 0 ) capacitor c=0.251779f
c280 ( 1623 0 ) capacitor c=0.12589f
c281 ( 1954 0 ) capacitor c=0.349092f
c282 ( 1620 0 ) capacitor c=0.12589f
c283 ( 1617 0 ) capacitor c=0.12589f
c284 ( 1614 0 ) capacitor c=0.251779f
c285 ( 1611 0 ) capacitor c=0.251779f
c286 ( 1949 0 ) capacitor c=0.246116f
c287 ( 1578 0 ) capacitor c=0.251779f
c288 ( 1939 0 ) capacitor c=0.246131f
c289 ( 1575 0 ) capacitor c=0.251779f
c290 ( 1572 0 ) capacitor c=0.251779f
c291 ( 1569 0 ) capacitor c=0.251779f
c292 ( 1566 0 ) capacitor c=0.251779f
c293 ( 1563 0 ) capacitor c=0.12589f
c294 ( 1934 0 ) capacitor c=0.452103f
c295 ( 1560 0 ) capacitor c=0.251779f
c296 ( 1557 0 ) capacitor c=0.12589f
c297 ( 1551 0 ) capacitor c=0.251779f
c298 ( 1545 0 ) capacitor c=0.251779f
c299 ( 1031 0 ) capacitor c=1.17493f
c300 ( 1025 0 ) capacitor c=0.566086f
c301 ( 1019 0 ) capacitor c=0.918454f
c302 ( 1013 0 ) capacitor c=0.465331f
c303 ( 1007 0 ) capacitor c=0.909434f
c304 ( 1001 0 ) capacitor c=0.566056f
c305 ( 995 0 ) capacitor c=0.589343f
c306 ( 989 0 ) capacitor c=0.465325f
c307 ( 983 0 ) capacitor c=0.482765f
c308 ( 977 0 ) capacitor c=0.566051f
c309 ( 971 0 ) capacitor c=0.906854f
c310 ( 965 0 ) capacitor c=0.571911f
c311 ( 959 0 ) capacitor c=0.583497f
c312 ( 953 0 ) capacitor c=0.566056f
c313 ( 947 0 ) capacitor c=0.583497f
c314 ( 941 0 ) capacitor c=0.570512f
c315 ( 935 0 ) capacitor c=0.58796f
c316 ( 929 0 ) capacitor c=0.566049f
c317 ( 923 0 ) capacitor c=0.482765f
c318 ( 917 0 ) capacitor c=0.578974f
c319 ( 911 0 ) capacitor c=0.583497f
c320 ( 905 0 ) capacitor c=0.566056f
c321 ( 899 0 ) capacitor c=0.684229f
c322 ( 893 0 ) capacitor c=0.792128f
c323 ( 887 0 ) capacitor c=0.694541f
c324 ( 881 0 ) capacitor c=0.679694f
c325 ( 875 0 ) capacitor c=0.684229f
c326 ( 869 0 ) capacitor c=0.566062f
c327 ( 863 0 ) capacitor c=0.723083f
c328 ( 857 0 ) capacitor c=0.578967f
c329 ( 851 0 ) capacitor c=0.789424f
c330 ( 845 0 ) capacitor c=0.742695f
c331 ( 839 0 ) capacitor c=0.482765f
c332 ( 833 0 ) capacitor c=0.465317f
c333 ( 827 0 ) capacitor c=0.789424f
c334 ( 821 0 ) capacitor c=0.569069f
c335 ( 815 0 ) capacitor c=0.688692f
c336 ( 809 0 ) capacitor c=0.773366f
c337 ( 803 0 ) capacitor c=0.690075f
c338 ( 797 0 ) capacitor c=0.465325f
c339 ( 791 0 ) capacitor c=0.58796f
c340 ( 785 0 ) capacitor c=0.666783f
c341 ( 779 0 ) capacitor c=0.690077f
c342 ( 773 0 ) capacitor c=0.677106f
c343 ( 767 0 ) capacitor c=0.694541f
c344 ( 761 0 ) capacitor c=0.578967f
c345 ( 755 0 ) capacitor c=0.583497f
c346 ( 749 0 ) capacitor c=0.566049f
c347 ( 743 0 ) capacitor c=0.482765f
c348 ( 737 0 ) capacitor c=0.677092f
c349 ( 731 0 ) capacitor c=0.811874f
c350 ( 725 0 ) capacitor c=0.565796f
c351 ( 719 0 ) capacitor c=0.583497f
c352 ( 713 0 ) capacitor c=0.578967f
c353 ( 707 0 ) capacitor c=0.482765f
c354 ( 701 0 ) capacitor c=0.684163f
c355 ( 695 0 ) capacitor c=0.482765f
c356 ( 689 0 ) capacitor c=0.887006f
c357 ( 683 0 ) capacitor c=0.604565f
c358 ( 677 0 ) capacitor c=0.780437f
c359 ( 671 0 ) capacitor c=0.482765f
c360 ( 665 0 ) capacitor c=0.666788f
c361 ( 659 0 ) capacitor c=0.806028f
c362 ( 653 0 ) capacitor c=0.667606f
c363 ( 1523 0 ) capacitor c=0.649342f
c364 ( 1481 0 ) capacitor c=0.681518f
c365 ( 1361 0 ) capacitor c=0.566045f
c366 ( 1265 0 ) capacitor c=0.687845f
c367 ( 1169 0 ) capacitor c=0.681518f
c368 ( 394 0 ) capacitor c=29.7552f
c369 ( 262 0 ) capacitor c=19.8897f
c370 ( 133 0 ) capacitor c=3.59298f
c371 ( 3 0 ) capacitor c=3.59286f
r372 (  2055 2056 ) resistor r=1.64741
r373 (  2054 2055 ) resistor r=1.64741
r374 (  2053 2054 ) resistor r=1.64741
r375 (  2052 2053 ) resistor r=1.64741
r376 (  2051 2052 ) resistor r=1.64741
r377 (  2050 2051 ) resistor r=1.64741
r378 (  2049 2050 ) resistor r=1.64741
r379 (  2048 2049 ) resistor r=1.64741
r380 (  2047 2048 ) resistor r=1.64741
r381 (  2046 2047 ) resistor r=1.64741
r382 (  2045 2046 ) resistor r=1.64741
r383 (  2044 2045 ) resistor r=1.64741
r384 (  2043 2044 ) resistor r=1.64741
r385 (  2042 2043 ) resistor r=1.64741
r386 (  2041 2042 ) resistor r=1.64741
r387 (  2040 2041 ) resistor r=1.64741
r388 (  2039 2040 ) resistor r=1.64741
r389 (  2038 2039 ) resistor r=1.64741
r390 (  2037 2038 ) resistor r=1.64741
r391 (  2036 2037 ) resistor r=1.64741
r392 (  2035 2036 ) resistor r=1.64741
r393 (  2034 2035 ) resistor r=1.64741
r394 (  2033 2034 ) resistor r=1.64741
r395 (  2032 2033 ) resistor r=1.64741
r396 (  2031 2032 ) resistor r=1.64741
r397 (  2030 2031 ) resistor r=1.64741
r398 (  2029 2030 ) resistor r=1.64741
r399 (  2028 2029 ) resistor r=1.64741
r400 (  2027 2028 ) resistor r=1.64741
r401 (  2026 2027 ) resistor r=1.64741
r402 (  2025 2026 ) resistor r=1.64741
r403 (  2024 2025 ) resistor r=1.64741
r404 (  2023 2024 ) resistor r=1.64741
r405 (  2022 2023 ) resistor r=1.64741
r406 (  2021 2022 ) resistor r=1.64741
r407 (  2020 2021 ) resistor r=1.64741
r408 (  2019 2020 ) resistor r=1.64741
r409 (  2018 2019 ) resistor r=1.64741
r410 (  2017 2018 ) resistor r=1.64741
r411 (  2016 2017 ) resistor r=1.64741
r412 (  2015 2016 ) resistor r=1.64741
r413 (  2014 2015 ) resistor r=1.64741
r414 (  2013 2014 ) resistor r=1.64741
r415 (  2012 2013 ) resistor r=1.64741
r416 (  2011 2012 ) resistor r=1.64741
r417 (  2010 2011 ) resistor r=1.64741
r418 (  2009 2010 ) resistor r=1.64741
r419 (  2008 2009 ) resistor r=1.64741
r420 (  2007 2008 ) resistor r=1.64741
r421 (  2006 2007 ) resistor r=1.64741
r422 (  2005 2006 ) resistor r=1.64741
r423 (  2004 2005 ) resistor r=1.64741
r424 (  2003 2004 ) resistor r=1.64741
r425 (  2002 2003 ) resistor r=1.64741
r426 (  2001 2002 ) resistor r=1.64741
r427 (  2000 2001 ) resistor r=1.64741
r428 (  1999 2000 ) resistor r=1.64741
r429 (  1998 1999 ) resistor r=1.64741
r430 (  1997 1998 ) resistor r=1.64741
r431 (  1996 1997 ) resistor r=1.64741
r432 (  1995 1996 ) resistor r=1.64741
r433 (  1994 1995 ) resistor r=1.64741
r434 (  1993 1994 ) resistor r=1.64741
r435 (  1991 1992 ) resistor r=1.64741
r436 (  1990 1991 ) resistor r=1.64741
r437 (  1989 1990 ) resistor r=1.64741
r438 (  1988 1989 ) resistor r=1.64741
r439 (  1987 1988 ) resistor r=1.64741
r440 (  1986 1987 ) resistor r=1.64741
r441 (  1985 1986 ) resistor r=1.64741
r442 (  1984 1985 ) resistor r=1.64741
r443 (  1983 1984 ) resistor r=1.64741
r444 (  1982 1983 ) resistor r=1.64741
r445 (  1981 1982 ) resistor r=1.64741
r446 (  1980 1981 ) resistor r=1.64741
r447 (  1979 1980 ) resistor r=1.64741
r448 (  1978 1979 ) resistor r=1.64741
r449 (  1977 1978 ) resistor r=1.64741
r450 (  1976 1977 ) resistor r=1.64741
r451 (  1975 1976 ) resistor r=1.64741
r452 (  1974 1975 ) resistor r=1.64741
r453 (  1973 1974 ) resistor r=1.64741
r454 (  1972 1973 ) resistor r=1.64741
r455 (  1971 1972 ) resistor r=1.64741
r456 (  1970 1971 ) resistor r=1.64741
r457 (  1969 1970 ) resistor r=1.64741
r458 (  1968 1969 ) resistor r=1.64741
r459 (  1967 1968 ) resistor r=1.64741
r460 (  1966 1967 ) resistor r=1.64741
r461 (  1965 1966 ) resistor r=1.64741
r462 (  1964 1965 ) resistor r=1.64741
r463 (  1963 1964 ) resistor r=1.64741
r464 (  1962 1963 ) resistor r=1.64741
r465 (  1961 1962 ) resistor r=1.64741
r466 (  1960 1961 ) resistor r=1.64741
r467 (  1959 1960 ) resistor r=1.64741
r468 (  1958 1959 ) resistor r=1.64741
r469 (  1957 1958 ) resistor r=1.64741
r470 (  1956 1957 ) resistor r=1.64741
r471 (  1955 1956 ) resistor r=1.64741
r472 (  1954 1955 ) resistor r=1.64741
r473 (  1953 1954 ) resistor r=1.64741
r474 (  1952 1953 ) resistor r=1.64741
r475 (  1951 1952 ) resistor r=1.64741
r476 (  1950 1951 ) resistor r=1.64741
r477 (  1949 1950 ) resistor r=1.64741
r478 (  1948 1949 ) resistor r=1.64741
r479 (  1947 1948 ) resistor r=1.64741
r480 (  1946 1947 ) resistor r=1.64741
r481 (  1945 1946 ) resistor r=1.64741
r482 (  1944 1945 ) resistor r=1.64741
r483 (  1943 1944 ) resistor r=1.64741
r484 (  1942 1943 ) resistor r=1.64741
r485 (  1941 1942 ) resistor r=1.64741
r486 (  1940 1941 ) resistor r=1.64741
r487 (  1939 1940 ) resistor r=1.64741
r488 (  1938 1939 ) resistor r=1.64741
r489 (  1937 1938 ) resistor r=1.64741
r490 (  1936 1937 ) resistor r=1.64741
r491 (  1935 1936 ) resistor r=1.64741
r492 (  1934 1935 ) resistor r=1.64741
r493 (  1933 1934 ) resistor r=1.64741
r494 (  1932 1933 ) resistor r=1.64741
r495 (  1931 1932 ) resistor r=1.64741
r496 (  1930 1931 ) resistor r=1.64741
r497 (  1929 1930 ) resistor r=1.64741
r498 (  1926 2056 ) resistor r=2
r499 (  1923 2055 ) resistor r=2
r500 (  1920 2054 ) resistor r=2
r501 (  1917 2053 ) resistor r=2
r502 (  1914 2052 ) resistor r=2
r503 (  1911 2051 ) resistor r=2
r504 (  1908 2050 ) resistor r=2
r505 (  1905 2049 ) resistor r=2
r506 (  1902 2048 ) resistor r=2
r507 (  1899 2047 ) resistor r=2
r508 (  1896 2046 ) resistor r=2
r509 (  1893 2045 ) resistor r=2
r510 (  1890 2044 ) resistor r=2
r511 (  1887 2043 ) resistor r=2
r512 (  1884 2042 ) resistor r=2
r513 (  1881 2041 ) resistor r=2
r514 (  1878 2040 ) resistor r=2
r515 (  1875 2039 ) resistor r=2
r516 (  1872 2038 ) resistor r=2
r517 (  1869 2037 ) resistor r=2
r518 (  1866 2036 ) resistor r=2
r519 (  1863 2035 ) resistor r=2
r520 (  1860 2034 ) resistor r=2
r521 (  1857 2033 ) resistor r=2
r522 (  1854 2032 ) resistor r=2
r523 (  1851 2031 ) resistor r=2
r524 (  1848 2030 ) resistor r=2
r525 (  1845 2029 ) resistor r=2
r526 (  1842 2028 ) resistor r=2
r527 (  1839 2027 ) resistor r=2
r528 (  1836 2026 ) resistor r=2
r529 (  1833 2025 ) resistor r=2
r530 (  1830 2024 ) resistor r=2
r531 (  1827 2023 ) resistor r=2
r532 (  1824 2022 ) resistor r=2
r533 (  1821 2021 ) resistor r=2
r534 (  1818 2020 ) resistor r=2
r535 (  1815 2019 ) resistor r=2
r536 (  1812 2018 ) resistor r=2
r537 (  1809 2017 ) resistor r=2
r538 (  1806 2016 ) resistor r=2
r539 (  1803 2015 ) resistor r=2
r540 (  1800 2014 ) resistor r=2
r541 (  1797 2013 ) resistor r=2
r542 (  1794 2012 ) resistor r=2
r543 (  1791 2011 ) resistor r=2
r544 (  1788 2010 ) resistor r=2
r545 (  1785 2009 ) resistor r=2
r546 (  1782 2008 ) resistor r=2
r547 (  1779 2007 ) resistor r=2
r548 (  1776 2006 ) resistor r=2
r549 (  1773 2005 ) resistor r=2
r550 (  1770 2004 ) resistor r=2
r551 (  1767 2003 ) resistor r=2
r552 (  1764 2002 ) resistor r=2
r553 (  1761 2001 ) resistor r=2
r554 (  1758 2000 ) resistor r=2
r555 (  1755 1999 ) resistor r=2
r556 (  1752 1998 ) resistor r=2
r557 (  1749 1997 ) resistor r=2
r558 (  1746 1996 ) resistor r=2
r559 (  1743 1995 ) resistor r=2
r560 (  1740 1994 ) resistor r=2
r561 (  1737 1993 ) resistor r=2
r562 (  1734 1992 ) resistor r=2
r563 (  1731 1991 ) resistor r=2
r564 (  1728 1990 ) resistor r=2
r565 (  1725 1989 ) resistor r=2
r566 (  1722 1988 ) resistor r=2
r567 (  1719 1987 ) resistor r=2
r568 (  1716 1986 ) resistor r=2
r569 (  1713 1985 ) resistor r=2
r570 (  1710 1984 ) resistor r=2
r571 (  1707 1983 ) resistor r=2
r572 (  1704 1982 ) resistor r=2
r573 (  1701 1981 ) resistor r=2
r574 (  1698 1980 ) resistor r=2
r575 (  1695 1979 ) resistor r=2
r576 (  1692 1978 ) resistor r=2
r577 (  1689 1977 ) resistor r=2
r578 (  1686 1976 ) resistor r=2
r579 (  1683 1975 ) resistor r=2
r580 (  1680 1974 ) resistor r=2
r581 (  1677 1973 ) resistor r=2
r582 (  1674 1972 ) resistor r=2
r583 (  1671 1971 ) resistor r=2
r584 (  1668 1970 ) resistor r=2
r585 (  1665 1969 ) resistor r=2
r586 (  1662 1968 ) resistor r=2
r587 (  1659 1967 ) resistor r=2
r588 (  1656 1966 ) resistor r=2
r589 (  1653 1965 ) resistor r=2
r590 (  1650 1964 ) resistor r=2
r591 (  1647 1963 ) resistor r=2
r592 (  1644 1962 ) resistor r=2
r593 (  1641 1961 ) resistor r=2
r594 (  1638 1960 ) resistor r=2
r595 (  1635 1959 ) resistor r=2
r596 (  1632 1958 ) resistor r=2
r597 (  1629 1957 ) resistor r=2
r598 (  1626 1956 ) resistor r=2
r599 (  1623 1955 ) resistor r=2
r600 (  1620 1954 ) resistor r=2
r601 (  1617 1953 ) resistor r=2
r602 (  1614 1952 ) resistor r=2
r603 (  1611 1951 ) resistor r=2
r604 (  1608 1950 ) resistor r=2
r605 (  1605 1949 ) resistor r=2
r606 (  1602 1948 ) resistor r=2
r607 (  1599 1947 ) resistor r=2
r608 (  1596 1946 ) resistor r=2
r609 (  1593 1945 ) resistor r=2
r610 (  1590 1944 ) resistor r=2
r611 (  1587 1943 ) resistor r=2
r612 (  1584 1942 ) resistor r=2
r613 (  1581 1941 ) resistor r=2
r614 (  1578 1940 ) resistor r=2
r615 (  1575 1939 ) resistor r=2
r616 (  1572 1938 ) resistor r=2
r617 (  1569 1937 ) resistor r=2
r618 (  1566 1936 ) resistor r=2
r619 (  1563 1935 ) resistor r=2
r620 (  1560 1934 ) resistor r=2
r621 (  1557 1933 ) resistor r=2
r622 (  1554 1932 ) resistor r=2
r623 (  1551 1931 ) resistor r=2
r624 (  1548 1930 ) resistor r=2
r625 (  1545 1929 ) resistor r=2
r626 (  1541 1926 ) resistor r=3.56938
r627 (  1535 1923 ) resistor r=4.68
r628 (  1529 1920 ) resistor r=4.68
r629 (  1523 1917 ) resistor r=4.68
r630 (  1517 1914 ) resistor r=4.68
r631 (  1511 1911 ) resistor r=4.68
r632 (  1505 1908 ) resistor r=4.68
r633 (  1499 1905 ) resistor r=4.68
r634 (  1493 1902 ) resistor r=4.68
r635 (  1487 1899 ) resistor r=4.68
r636 (  1481 1896 ) resistor r=4.68
r637 (  1475 1893 ) resistor r=4.68
r638 (  1469 1890 ) resistor r=4.68
r639 (  1463 1887 ) resistor r=4.68
r640 (  1457 1884 ) resistor r=4.68
r641 (  1451 1881 ) resistor r=4.68
r642 (  1445 1878 ) resistor r=4.68
r643 (  1439 1875 ) resistor r=4.68
r644 (  1433 1872 ) resistor r=4.68
r645 (  1427 1869 ) resistor r=4.68
r646 (  1421 1866 ) resistor r=4.68
r647 (  1415 1863 ) resistor r=4.68
r648 (  1409 1860 ) resistor r=4.68
r649 (  1403 1857 ) resistor r=4.68
r650 (  1397 1854 ) resistor r=4.68
r651 (  1391 1851 ) resistor r=4.68
r652 (  1385 1848 ) resistor r=4.68
r653 (  1379 1845 ) resistor r=4.68
r654 (  1373 1842 ) resistor r=4.68
r655 (  1367 1839 ) resistor r=4.68
r656 (  1361 1836 ) resistor r=4.68
r657 (  1355 1833 ) resistor r=4.68
r658 (  1349 1830 ) resistor r=4.68
r659 (  1343 1827 ) resistor r=4.68
r660 (  1337 1824 ) resistor r=4.68
r661 (  1331 1821 ) resistor r=4.68
r662 (  1325 1818 ) resistor r=4.68
r663 (  1319 1815 ) resistor r=4.68
r664 (  1313 1812 ) resistor r=4.68
r665 (  1307 1809 ) resistor r=4.68
r666 (  1301 1806 ) resistor r=4.68
r667 (  1295 1803 ) resistor r=4.68
r668 (  1289 1800 ) resistor r=4.68
r669 (  1283 1797 ) resistor r=4.68
r670 (  1277 1794 ) resistor r=4.68
r671 (  1271 1791 ) resistor r=4.68
r672 (  1265 1788 ) resistor r=4.68
r673 (  1259 1785 ) resistor r=4.68
r674 (  1253 1782 ) resistor r=4.68
r675 (  1247 1779 ) resistor r=4.68
r676 (  1241 1776 ) resistor r=4.68
r677 (  1235 1773 ) resistor r=4.68
r678 (  1229 1770 ) resistor r=4.68
r679 (  1223 1767 ) resistor r=4.68
r680 (  1217 1764 ) resistor r=4.68
r681 (  1211 1761 ) resistor r=4.68
r682 (  1205 1758 ) resistor r=4.68
r683 (  1199 1755 ) resistor r=4.68
r684 (  1193 1752 ) resistor r=4.68
r685 (  1187 1749 ) resistor r=4.68
r686 (  1181 1746 ) resistor r=4.68
r687 (  1175 1743 ) resistor r=4.68
r688 (  1169 1740 ) resistor r=4.68
r689 (  1163 1737 ) resistor r=4.68
r690 (  1031 1734 ) resistor r=3.56938
r691 (  1025 1731 ) resistor r=4.68
r692 (  1019 1728 ) resistor r=4.68
r693 (  1013 1725 ) resistor r=4.68
r694 (  1007 1722 ) resistor r=4.68
r695 (  1001 1719 ) resistor r=4.68
r696 (  995 1716 ) resistor r=4.68
r697 (  989 1713 ) resistor r=4.68
r698 (  983 1710 ) resistor r=4.68
r699 (  977 1707 ) resistor r=4.68
r700 (  971 1704 ) resistor r=4.68
r701 (  965 1701 ) resistor r=4.68
r702 (  959 1698 ) resistor r=4.68
r703 (  953 1695 ) resistor r=4.68
r704 (  947 1692 ) resistor r=4.68
r705 (  941 1689 ) resistor r=4.68
r706 (  935 1686 ) resistor r=4.68
r707 (  929 1683 ) resistor r=4.68
r708 (  923 1680 ) resistor r=4.68
r709 (  917 1677 ) resistor r=4.68
r710 (  911 1674 ) resistor r=4.68
r711 (  905 1671 ) resistor r=4.68
r712 (  899 1668 ) resistor r=4.68
r713 (  893 1665 ) resistor r=4.68
r714 (  887 1662 ) resistor r=4.68
r715 (  881 1659 ) resistor r=4.68
r716 (  875 1656 ) resistor r=4.68
r717 (  869 1653 ) resistor r=4.68
r718 (  863 1650 ) resistor r=4.68
r719 (  857 1647 ) resistor r=4.68
r720 (  851 1644 ) resistor r=4.68
r721 (  845 1641 ) resistor r=4.68
r722 (  839 1638 ) resistor r=4.68
r723 (  833 1635 ) resistor r=4.68
r724 (  827 1632 ) resistor r=4.68
r725 (  821 1629 ) resistor r=4.68
r726 (  815 1626 ) resistor r=4.68
r727 (  809 1623 ) resistor r=4.68
r728 (  803 1620 ) resistor r=4.68
r729 (  797 1617 ) resistor r=4.68
r730 (  791 1614 ) resistor r=4.68
r731 (  785 1611 ) resistor r=4.68
r732 (  779 1608 ) resistor r=4.68
r733 (  773 1605 ) resistor r=4.68
r734 (  767 1602 ) resistor r=4.68
r735 (  761 1599 ) resistor r=4.68
r736 (  755 1596 ) resistor r=4.68
r737 (  749 1593 ) resistor r=4.68
r738 (  743 1590 ) resistor r=4.68
r739 (  737 1587 ) resistor r=4.68
r740 (  731 1584 ) resistor r=4.68
r741 (  725 1581 ) resistor r=4.68
r742 (  719 1578 ) resistor r=4.68
r743 (  713 1575 ) resistor r=4.68
r744 (  707 1572 ) resistor r=4.68
r745 (  701 1569 ) resistor r=4.68
r746 (  695 1566 ) resistor r=4.68
r747 (  689 1563 ) resistor r=4.68
r748 (  683 1560 ) resistor r=4.68
r749 (  677 1557 ) resistor r=4.68
r750 (  671 1554 ) resistor r=4.68
r751 (  665 1551 ) resistor r=4.68
r752 (  659 1548 ) resistor r=4.68
r753 (  653 1545 ) resistor r=4.68
r754 (  133 1993 ) resistor r=31.8613
r755 (  3 1929 ) resistor r=31.8613
ends PM_POST_L8_256T8\%SEL7\<1\>

subckt PM_POST_L8_256T8\%SEL6\<1\> ( 3 134 267 526 1041 1045 1049 1053 1057 \
 1061 1065 1069 1073 1077 1081 1085 1089 1093 1097 1101 1105 1109 1113 1117 \
 1121 1125 1129 1133 1137 1141 1145 1149 1153 1157 1161 1165 1169 1173 1177 \
 1181 1185 1189 1193 1197 1201 1205 1209 1213 1217 1221 1225 1229 1233 1237 \
 1241 1245 1249 1253 1257 1261 1265 1269 1273 1277 1281 1285 1289 1293 1553 \
 1557 1561 1565 1569 1573 1577 1581 1585 1589 1593 1597 1601 1605 1609 1613 \
 1617 1621 1625 1629 1633 1637 1641 1645 1649 1653 1657 1661 1665 1669 1673 \
 1677 1681 1685 1689 1693 1697 1701 1705 1709 1713 1717 1721 1725 1729 1733 \
 1737 1741 1745 1749 1753 1757 1761 1765 1769 1773 1777 1781 1785 1789 1793 \
 1797 1801 1805 )
c0 ( 1549 0 ) capacitor c=0.208038f
c1 ( 1545 0 ) capacitor c=0.240729f
c2 ( 1541 0 ) capacitor c=0.134148f
c3 ( 1533 0 ) capacitor c=0.134148f
c4 ( 1505 0 ) capacitor c=0.134148f
c5 ( 1501 0 ) capacitor c=0.134148f
c6 ( 1497 0 ) capacitor c=0.134148f
c7 ( 1489 0 ) capacitor c=0.134148f
c8 ( 1481 0 ) capacitor c=0.10658f
c9 ( 1477 0 ) capacitor c=0.134148f
c10 ( 1465 0 ) capacitor c=0.134148f
c11 ( 1457 0 ) capacitor c=0.134148f
c12 ( 1453 0 ) capacitor c=0.101458f
c13 ( 1449 0 ) capacitor c=0.134148f
c14 ( 1417 0 ) capacitor c=0.134148f
c15 ( 1401 0 ) capacitor c=0.134148f