// File: /home/edauser0/ayigit/RowDecoder_Project/CDS_VISIO/project_common/BitCellArray_Pex/spectreText/spectre.scs.BITCELLARRAY_PEX.pxi
// Created: Mon Dec 20 12:00:22 2021
// 
simulator lang=spectre
x_PM_BITCELLARRAY_PEX\%WL\<0\> ( N_WL\<0\>_XIRow\<0\>\/XI0\<0\>\/MNM1_g \
 N_WL\<0\>_XIRow\<0\>\/XI0\<0\>\/MNM0_g \
 N_WL\<0\>_XIRow\<0\>\/XI0\<31\>\/MNM1_g \
 N_WL\<0\>_XIRow\<0\>\/XI0\<31\>\/MNM0_g \
 N_WL\<0\>_XIRow\<0\>\/XI0\<30\>\/MNM1_g \
 N_WL\<0\>_XIRow\<0\>\/XI0\<30\>\/MNM0_g \
 N_WL\<0\>_XIRow\<0\>\/XI0\<29\>\/MNM1_g \
 N_WL\<0\>_XIRow\<0\>\/XI0\<29\>\/MNM0_g \
 N_WL\<0\>_XIRow\<0\>\/XI0\<28\>\/MNM1_g \
 N_WL\<0\>_XIRow\<0\>\/XI0\<28\>\/MNM0_g \
 N_WL\<0\>_XIRow\<0\>\/XI0\<27\>\/MNM1_g \
 N_WL\<0\>_XIRow\<0\>\/XI0\<27\>\/MNM0_g \
 N_WL\<0\>_XIRow\<0\>\/XI0\<26\>\/MNM1_g \
 N_WL\<0\>_XIRow\<0\>\/XI0\<26\>\/MNM0_g \
 N_WL\<0\>_XIRow\<0\>\/XI0\<25\>\/MNM1_g \
 N_WL\<0\>_XIRow\<0\>\/XI0\<25\>\/MNM0_g \
 N_WL\<0\>_XIRow\<0\>\/XI0\<24\>\/MNM1_g \
 N_WL\<0\>_XIRow\<0\>\/XI0\<24\>\/MNM0_g \
 N_WL\<0\>_XIRow\<0\>\/XI0\<23\>\/MNM1_g \
 N_WL\<0\>_XIRow\<0\>\/XI0\<23\>\/MNM0_g \
 N_WL\<0\>_XIRow\<0\>\/XI0\<22\>\/MNM1_g \
 N_WL\<0\>_XIRow\<0\>\/XI0\<22\>\/MNM0_g \
 N_WL\<0\>_XIRow\<0\>\/XI0\<21\>\/MNM1_g \
 N_WL\<0\>_XIRow\<0\>\/XI0\<21\>\/MNM0_g \
 N_WL\<0\>_XIRow\<0\>\/XI0\<20\>\/MNM1_g \
 N_WL\<0\>_XIRow\<0\>\/XI0\<20\>\/MNM0_g \
 N_WL\<0\>_XIRow\<0\>\/XI0\<19\>\/MNM1_g \
 N_WL\<0\>_XIRow\<0\>\/XI0\<19\>\/MNM0_g \
 N_WL\<0\>_XIRow\<0\>\/XI0\<18\>\/MNM1_g \
 N_WL\<0\>_XIRow\<0\>\/XI0\<18\>\/MNM0_g \
 N_WL\<0\>_XIRow\<0\>\/XI0\<17\>\/MNM1_g \
 N_WL\<0\>_XIRow\<0\>\/XI0\<17\>\/MNM0_g \
 N_WL\<0\>_XIRow\<0\>\/XI0\<16\>\/MNM1_g \
 N_WL\<0\>_XIRow\<0\>\/XI0\<16\>\/MNM0_g \
 N_WL\<0\>_XIRow\<0\>\/XI0\<15\>\/MNM1_g \
 N_WL\<0\>_XIRow\<0\>\/XI0\<15\>\/MNM0_g \
 N_WL\<0\>_XIRow\<0\>\/XI0\<14\>\/MNM1_g \
 N_WL\<0\>_XIRow\<0\>\/XI0\<14\>\/MNM0_g \
 N_WL\<0\>_XIRow\<0\>\/XI0\<13\>\/MNM1_g \
 N_WL\<0\>_XIRow\<0\>\/XI0\<13\>\/MNM0_g \
 N_WL\<0\>_XIRow\<0\>\/XI0\<12\>\/MNM1_g \
 N_WL\<0\>_XIRow\<0\>\/XI0\<12\>\/MNM0_g \
 N_WL\<0\>_XIRow\<0\>\/XI0\<11\>\/MNM1_g \
 N_WL\<0\>_XIRow\<0\>\/XI0\<11\>\/MNM0_g \
 N_WL\<0\>_XIRow\<0\>\/XI0\<10\>\/MNM1_g \
 N_WL\<0\>_XIRow\<0\>\/XI0\<10\>\/MNM0_g \
 N_WL\<0\>_XIRow\<0\>\/XI0\<9\>\/MNM1_g N_WL\<0\>_XIRow\<0\>\/XI0\<9\>\/MNM0_g \
 N_WL\<0\>_XIRow\<0\>\/XI0\<8\>\/MNM1_g N_WL\<0\>_XIRow\<0\>\/XI0\<8\>\/MNM0_g \
 N_WL\<0\>_XIRow\<0\>\/XI0\<7\>\/MNM1_g N_WL\<0\>_XIRow\<0\>\/XI0\<7\>\/MNM0_g \
 N_WL\<0\>_XIRow\<0\>\/XI0\<6\>\/MNM1_g N_WL\<0\>_XIRow\<0\>\/XI0\<6\>\/MNM0_g \
 N_WL\<0\>_XIRow\<0\>\/XI0\<5\>\/MNM1_g N_WL\<0\>_XIRow\<0\>\/XI0\<5\>\/MNM0_g \
 N_WL\<0\>_XIRow\<0\>\/XI0\<4\>\/MNM1_g N_WL\<0\>_XIRow\<0\>\/XI0\<4\>\/MNM0_g \
 N_WL\<0\>_XIRow\<0\>\/XI0\<3\>\/MNM1_g N_WL\<0\>_XIRow\<0\>\/XI0\<3\>\/MNM0_g \
 N_WL\<0\>_XIRow\<0\>\/XI0\<2\>\/MNM1_g N_WL\<0\>_XIRow\<0\>\/XI0\<2\>\/MNM0_g \
 N_WL\<0\>_XIRow\<0\>\/XI0\<1\>\/MNM1_g N_WL\<0\>_XIRow\<0\>\/XI0\<1\>\/MNM0_g \
 WL\<0\> )  PM_BITCELLARRAY_PEX\%WL\<0\>
x_PM_BITCELLARRAY_PEX\%WL\<1\> ( N_WL\<1\>_XIRow\<1\>\/XI0\<0\>\/MNM1_g \
 N_WL\<1\>_XIRow\<1\>\/XI0\<0\>\/MNM0_g \
 N_WL\<1\>_XIRow\<1\>\/XI0\<31\>\/MNM1_g \
 N_WL\<1\>_XIRow\<1\>\/XI0\<31\>\/MNM0_g \
 N_WL\<1\>_XIRow\<1\>\/XI0\<30\>\/MNM1_g \
 N_WL\<1\>_XIRow\<1\>\/XI0\<30\>\/MNM0_g \
 N_WL\<1\>_XIRow\<1\>\/XI0\<29\>\/MNM1_g \
 N_WL\<1\>_XIRow\<1\>\/XI0\<29\>\/MNM0_g \
 N_WL\<1\>_XIRow\<1\>\/XI0\<28\>\/MNM1_g \
 N_WL\<1\>_XIRow\<1\>\/XI0\<28\>\/MNM0_g \
 N_WL\<1\>_XIRow\<1\>\/XI0\<27\>\/MNM1_g \
 N_WL\<1\>_XIRow\<1\>\/XI0\<27\>\/MNM0_g \
 N_WL\<1\>_XIRow\<1\>\/XI0\<26\>\/MNM1_g \
 N_WL\<1\>_XIRow\<1\>\/XI0\<26\>\/MNM0_g \
 N_WL\<1\>_XIRow\<1\>\/XI0\<25\>\/MNM1_g \
 N_WL\<1\>_XIRow\<1\>\/XI0\<25\>\/MNM0_g \
 N_WL\<1\>_XIRow\<1\>\/XI0\<24\>\/MNM1_g \
 N_WL\<1\>_XIRow\<1\>\/XI0\<24\>\/MNM0_g \
 N_WL\<1\>_XIRow\<1\>\/XI0\<23\>\/MNM1_g \
 N_WL\<1\>_XIRow\<1\>\/XI0\<23\>\/MNM0_g \
 N_WL\<1\>_XIRow\<1\>\/XI0\<22\>\/MNM1_g \
 N_WL\<1\>_XIRow\<1\>\/XI0\<22\>\/MNM0_g \
 N_WL\<1\>_XIRow\<1\>\/XI0\<21\>\/MNM1_g \
 N_WL\<1\>_XIRow\<1\>\/XI0\<21\>\/MNM0_g \
 N_WL\<1\>_XIRow\<1\>\/XI0\<20\>\/MNM1_g \
 N_WL\<1\>_XIRow\<1\>\/XI0\<20\>\/MNM0_g \
 N_WL\<1\>_XIRow\<1\>\/XI0\<19\>\/MNM1_g \
 N_WL\<1\>_XIRow\<1\>\/XI0\<19\>\/MNM0_g \
 N_WL\<1\>_XIRow\<1\>\/XI0\<18\>\/MNM1_g \
 N_WL\<1\>_XIRow\<1\>\/XI0\<18\>\/MNM0_g \
 N_WL\<1\>_XIRow\<1\>\/XI0\<17\>\/MNM1_g \
 N_WL\<1\>_XIRow\<1\>\/XI0\<17\>\/MNM0_g \
 N_WL\<1\>_XIRow\<1\>\/XI0\<16\>\/MNM1_g \
 N_WL\<1\>_XIRow\<1\>\/XI0\<16\>\/MNM0_g \
 N_WL\<1\>_XIRow\<1\>\/XI0\<15\>\/MNM1_g \
 N_WL\<1\>_XIRow\<1\>\/XI0\<15\>\/MNM0_g \
 N_WL\<1\>_XIRow\<1\>\/XI0\<14\>\/MNM1_g \
 N_WL\<1\>_XIRow\<1\>\/XI0\<14\>\/MNM0_g \
 N_WL\<1\>_XIRow\<1\>\/XI0\<13\>\/MNM1_g \
 N_WL\<1\>_XIRow\<1\>\/XI0\<13\>\/MNM0_g \
 N_WL\<1\>_XIRow\<1\>\/XI0\<12\>\/MNM1_g \
 N_WL\<1\>_XIRow\<1\>\/XI0\<12\>\/MNM0_g \
 N_WL\<1\>_XIRow\<1\>\/XI0\<11\>\/MNM1_g \
 N_WL\<1\>_XIRow\<1\>\/XI0\<11\>\/MNM0_g \
 N_WL\<1\>_XIRow\<1\>\/XI0\<10\>\/MNM1_g \
 N_WL\<1\>_XIRow\<1\>\/XI0\<10\>\/MNM0_g \
 N_WL\<1\>_XIRow\<1\>\/XI0\<9\>\/MNM1_g N_WL\<1\>_XIRow\<1\>\/XI0\<9\>\/MNM0_g \
 N_WL\<1\>_XIRow\<1\>\/XI0\<8\>\/MNM1_g N_WL\<1\>_XIRow\<1\>\/XI0\<8\>\/MNM0_g \
 N_WL\<1\>_XIRow\<1\>\/XI0\<7\>\/MNM1_g N_WL\<1\>_XIRow\<1\>\/XI0\<7\>\/MNM0_g \
 N_WL\<1\>_XIRow\<1\>\/XI0\<6\>\/MNM1_g N_WL\<1\>_XIRow\<1\>\/XI0\<6\>\/MNM0_g \
 N_WL\<1\>_XIRow\<1\>\/XI0\<5\>\/MNM1_g N_WL\<1\>_XIRow\<1\>\/XI0\<5\>\/MNM0_g \
 N_WL\<1\>_XIRow\<1\>\/XI0\<4\>\/MNM1_g N_WL\<1\>_XIRow\<1\>\/XI0\<4\>\/MNM0_g \
 N_WL\<1\>_XIRow\<1\>\/XI0\<3\>\/MNM1_g N_WL\<1\>_XIRow\<1\>\/XI0\<3\>\/MNM0_g \
 N_WL\<1\>_XIRow\<1\>\/XI0\<2\>\/MNM1_g N_WL\<1\>_XIRow\<1\>\/XI0\<2\>\/MNM0_g \
 N_WL\<1\>_XIRow\<1\>\/XI0\<1\>\/MNM1_g N_WL\<1\>_XIRow\<1\>\/XI0\<1\>\/MNM0_g \
 WL\<1\> )  PM_BITCELLARRAY_PEX\%WL\<1\>
x_PM_BITCELLARRAY_PEX\%WL\<2\> ( N_WL\<2\>_XIRow\<2\>\/XI0\<0\>\/MNM1_g \
 N_WL\<2\>_XIRow\<2\>\/XI0\<0\>\/MNM0_g \
 N_WL\<2\>_XIRow\<2\>\/XI0\<31\>\/MNM1_g \
 N_WL\<2\>_XIRow\<2\>\/XI0\<31\>\/MNM0_g \
 N_WL\<2\>_XIRow\<2\>\/XI0\<30\>\/MNM1_g \
 N_WL\<2\>_XIRow\<2\>\/XI0\<30\>\/MNM0_g \
 N_WL\<2\>_XIRow\<2\>\/XI0\<29\>\/MNM1_g \
 N_WL\<2\>_XIRow\<2\>\/XI0\<29\>\/MNM0_g \
 N_WL\<2\>_XIRow\<2\>\/XI0\<28\>\/MNM1_g \
 N_WL\<2\>_XIRow\<2\>\/XI0\<28\>\/MNM0_g \
 N_WL\<2\>_XIRow\<2\>\/XI0\<27\>\/MNM1_g \
 N_WL\<2\>_XIRow\<2\>\/XI0\<27\>\/MNM0_g \
 N_WL\<2\>_XIRow\<2\>\/XI0\<26\>\/MNM1_g \
 N_WL\<2\>_XIRow\<2\>\/XI0\<26\>\/MNM0_g \
 N_WL\<2\>_XIRow\<2\>\/XI0\<25\>\/MNM1_g \
 N_WL\<2\>_XIRow\<2\>\/XI0\<25\>\/MNM0_g \
 N_WL\<2\>_XIRow\<2\>\/XI0\<24\>\/MNM1_g \
 N_WL\<2\>_XIRow\<2\>\/XI0\<24\>\/MNM0_g \
 N_WL\<2\>_XIRow\<2\>\/XI0\<23\>\/MNM1_g \
 N_WL\<2\>_XIRow\<2\>\/XI0\<23\>\/MNM0_g \
 N_WL\<2\>_XIRow\<2\>\/XI0\<22\>\/MNM1_g \
 N_WL\<2\>_XIRow\<2\>\/XI0\<22\>\/MNM0_g \
 N_WL\<2\>_XIRow\<2\>\/XI0\<21\>\/MNM1_g \
 N_WL\<2\>_XIRow\<2\>\/XI0\<21\>\/MNM0_g \
 N_WL\<2\>_XIRow\<2\>\/XI0\<20\>\/MNM1_g \
 N_WL\<2\>_XIRow\<2\>\/XI0\<20\>\/MNM0_g \
 N_WL\<2\>_XIRow\<2\>\/XI0\<19\>\/MNM1_g \
 N_WL\<2\>_XIRow\<2\>\/XI0\<19\>\/MNM0_g \
 N_WL\<2\>_XIRow\<2\>\/XI0\<18\>\/MNM1_g \
 N_WL\<2\>_XIRow\<2\>\/XI0\<18\>\/MNM0_g \
 N_WL\<2\>_XIRow\<2\>\/XI0\<17\>\/MNM1_g \
 N_WL\<2\>_XIRow\<2\>\/XI0\<17\>\/MNM0_g \
 N_WL\<2\>_XIRow\<2\>\/XI0\<16\>\/MNM1_g \
 N_WL\<2\>_XIRow\<2\>\/XI0\<16\>\/MNM0_g \
 N_WL\<2\>_XIRow\<2\>\/XI0\<15\>\/MNM1_g \
 N_WL\<2\>_XIRow\<2\>\/XI0\<15\>\/MNM0_g \
 N_WL\<2\>_XIRow\<2\>\/XI0\<14\>\/MNM1_g \
 N_WL\<2\>_XIRow\<2\>\/XI0\<14\>\/MNM0_g \
 N_WL\<2\>_XIRow\<2\>\/XI0\<13\>\/MNM1_g \
 N_WL\<2\>_XIRow\<2\>\/XI0\<13\>\/MNM0_g \
 N_WL\<2\>_XIRow\<2\>\/XI0\<12\>\/MNM1_g \
 N_WL\<2\>_XIRow\<2\>\/XI0\<12\>\/MNM0_g \
 N_WL\<2\>_XIRow\<2\>\/XI0\<11\>\/MNM1_g \
 N_WL\<2\>_XIRow\<2\>\/XI0\<11\>\/MNM0_g \
 N_WL\<2\>_XIRow\<2\>\/XI0\<10\>\/MNM1_g \
 N_WL\<2\>_XIRow\<2\>\/XI0\<10\>\/MNM0_g \
 N_WL\<2\>_XIRow\<2\>\/XI0\<9\>\/MNM1_g N_WL\<2\>_XIRow\<2\>\/XI0\<9\>\/MNM0_g \
 N_WL\<2\>_XIRow\<2\>\/XI0\<8\>\/MNM1_g N_WL\<2\>_XIRow\<2\>\/XI0\<8\>\/MNM0_g \
 N_WL\<2\>_XIRow\<2\>\/XI0\<7\>\/MNM1_g N_WL\<2\>_XIRow\<2\>\/XI0\<7\>\/MNM0_g \
 N_WL\<2\>_XIRow\<2\>\/XI0\<6\>\/MNM1_g N_WL\<2\>_XIRow\<2\>\/XI0\<6\>\/MNM0_g \
 N_WL\<2\>_XIRow\<2\>\/XI0\<5\>\/MNM1_g N_WL\<2\>_XIRow\<2\>\/XI0\<5\>\/MNM0_g \
 N_WL\<2\>_XIRow\<2\>\/XI0\<4\>\/MNM1_g N_WL\<2\>_XIRow\<2\>\/XI0\<4\>\/MNM0_g \
 N_WL\<2\>_XIRow\<2\>\/XI0\<3\>\/MNM1_g N_WL\<2\>_XIRow\<2\>\/XI0\<3\>\/MNM0_g \
 N_WL\<2\>_XIRow\<2\>\/XI0\<2\>\/MNM1_g N_WL\<2\>_XIRow\<2\>\/XI0\<2\>\/MNM0_g \
 N_WL\<2\>_XIRow\<2\>\/XI0\<1\>\/MNM1_g N_WL\<2\>_XIRow\<2\>\/XI0\<1\>\/MNM0_g \
 WL\<2\> )  PM_BITCELLARRAY_PEX\%WL\<2\>
x_PM_BITCELLARRAY_PEX\%WL\<3\> ( N_WL\<3\>_XIRow\<3\>\/XI0\<0\>\/MNM1_g \
 N_WL\<3\>_XIRow\<3\>\/XI0\<0\>\/MNM0_g \
 N_WL\<3\>_XIRow\<3\>\/XI0\<31\>\/MNM1_g \
 N_WL\<3\>_XIRow\<3\>\/XI0\<31\>\/MNM0_g \
 N_WL\<3\>_XIRow\<3\>\/XI0\<30\>\/MNM1_g \
 N_WL\<3\>_XIRow\<3\>\/XI0\<30\>\/MNM0_g \
 N_WL\<3\>_XIRow\<3\>\/XI0\<29\>\/MNM1_g \
 N_WL\<3\>_XIRow\<3\>\/XI0\<29\>\/MNM0_g \
 N_WL\<3\>_XIRow\<3\>\/XI0\<28\>\/MNM1_g \
 N_WL\<3\>_XIRow\<3\>\/XI0\<28\>\/MNM0_g \
 N_WL\<3\>_XIRow\<3\>\/XI0\<27\>\/MNM1_g \
 N_WL\<3\>_XIRow\<3\>\/XI0\<27\>\/MNM0_g \
 N_WL\<3\>_XIRow\<3\>\/XI0\<26\>\/MNM1_g \
 N_WL\<3\>_XIRow\<3\>\/XI0\<26\>\/MNM0_g \
 N_WL\<3\>_XIRow\<3\>\/XI0\<25\>\/MNM1_g \
 N_WL\<3\>_XIRow\<3\>\/XI0\<25\>\/MNM0_g \
 N_WL\<3\>_XIRow\<3\>\/XI0\<24\>\/MNM1_g \
 N_WL\<3\>_XIRow\<3\>\/XI0\<24\>\/MNM0_g \
 N_WL\<3\>_XIRow\<3\>\/XI0\<23\>\/MNM1_g \
 N_WL\<3\>_XIRow\<3\>\/XI0\<23\>\/MNM0_g \
 N_WL\<3\>_XIRow\<3\>\/XI0\<22\>\/MNM1_g \
 N_WL\<3\>_XIRow\<3\>\/XI0\<22\>\/MNM0_g \
 N_WL\<3\>_XIRow\<3\>\/XI0\<21\>\/MNM1_g \
 N_WL\<3\>_XIRow\<3\>\/XI0\<21\>\/MNM0_g \
 N_WL\<3\>_XIRow\<3\>\/XI0\<20\>\/MNM1_g \
 N_WL\<3\>_XIRow\<3\>\/XI0\<20\>\/MNM0_g \
 N_WL\<3\>_XIRow\<3\>\/XI0\<19\>\/MNM1_g \
 N_WL\<3\>_XIRow\<3\>\/XI0\<19\>\/MNM0_g \
 N_WL\<3\>_XIRow\<3\>\/XI0\<18\>\/MNM1_g \
 N_WL\<3\>_XIRow\<3\>\/XI0\<18\>\/MNM0_g \
 N_WL\<3\>_XIRow\<3\>\/XI0\<17\>\/MNM1_g \
 N_WL\<3\>_XIRow\<3\>\/XI0\<17\>\/MNM0_g \
 N_WL\<3\>_XIRow\<3\>\/XI0\<16\>\/MNM1_g \
 N_WL\<3\>_XIRow\<3\>\/XI0\<16\>\/MNM0_g \
 N_WL\<3\>_XIRow\<3\>\/XI0\<15\>\/MNM1_g \
 N_WL\<3\>_XIRow\<3\>\/XI0\<15\>\/MNM0_g \
 N_WL\<3\>_XIRow\<3\>\/XI0\<14\>\/MNM1_g \
 N_WL\<3\>_XIRow\<3\>\/XI0\<14\>\/MNM0_g \
 N_WL\<3\>_XIRow\<3\>\/XI0\<13\>\/MNM1_g \
 N_WL\<3\>_XIRow\<3\>\/XI0\<13\>\/MNM0_g \
 N_WL\<3\>_XIRow\<3\>\/XI0\<12\>\/MNM1_g \
 N_WL\<3\>_XIRow\<3\>\/XI0\<12\>\/MNM0_g \
 N_WL\<3\>_XIRow\<3\>\/XI0\<11\>\/MNM1_g \
 N_WL\<3\>_XIRow\<3\>\/XI0\<11\>\/MNM0_g \
 N_WL\<3\>_XIRow\<3\>\/XI0\<10\>\/MNM1_g \
 N_WL\<3\>_XIRow\<3\>\/XI0\<10\>\/MNM0_g \
 N_WL\<3\>_XIRow\<3\>\/XI0\<9\>\/MNM1_g N_WL\<3\>_XIRow\<3\>\/XI0\<9\>\/MNM0_g \
 N_WL\<3\>_XIRow\<3\>\/XI0\<8\>\/MNM1_g N_WL\<3\>_XIRow\<3\>\/XI0\<8\>\/MNM0_g \
 N_WL\<3\>_XIRow\<3\>\/XI0\<7\>\/MNM1_g N_WL\<3\>_XIRow\<3\>\/XI0\<7\>\/MNM0_g \
 N_WL\<3\>_XIRow\<3\>\/XI0\<6\>\/MNM1_g N_WL\<3\>_XIRow\<3\>\/XI0\<6\>\/MNM0_g \
 N_WL\<3\>_XIRow\<3\>\/XI0\<5\>\/MNM1_g N_WL\<3\>_XIRow\<3\>\/XI0\<5\>\/MNM0_g \
 N_WL\<3\>_XIRow\<3\>\/XI0\<4\>\/MNM1_g N_WL\<3\>_XIRow\<3\>\/XI0\<4\>\/MNM0_g \
 N_WL\<3\>_XIRow\<3\>\/XI0\<3\>\/MNM1_g N_WL\<3\>_XIRow\<3\>\/XI0\<3\>\/MNM0_g \
 N_WL\<3\>_XIRow\<3\>\/XI0\<2\>\/MNM1_g N_WL\<3\>_XIRow\<3\>\/XI0\<2\>\/MNM0_g \
 N_WL\<3\>_XIRow\<3\>\/XI0\<1\>\/MNM1_g N_WL\<3\>_XIRow\<3\>\/XI0\<1\>\/MNM0_g \
 WL\<3\> )  PM_BITCELLARRAY_PEX\%WL\<3\>
x_PM_BITCELLARRAY_PEX\%WL\<4\> ( N_WL\<4\>_XIRow\<4\>\/XI0\<0\>\/MNM1_g \
 N_WL\<4\>_XIRow\<4\>\/XI0\<0\>\/MNM0_g \
 N_WL\<4\>_XIRow\<4\>\/XI0\<31\>\/MNM1_g \
 N_WL\<4\>_XIRow\<4\>\/XI0\<31\>\/MNM0_g \
 N_WL\<4\>_XIRow\<4\>\/XI0\<30\>\/MNM1_g \
 N_WL\<4\>_XIRow\<4\>\/XI0\<30\>\/MNM0_g \
 N_WL\<4\>_XIRow\<4\>\/XI0\<29\>\/MNM1_g \
 N_WL\<4\>_XIRow\<4\>\/XI0\<29\>\/MNM0_g \
 N_WL\<4\>_XIRow\<4\>\/XI0\<28\>\/MNM1_g \
 N_WL\<4\>_XIRow\<4\>\/XI0\<28\>\/MNM0_g \
 N_WL\<4\>_XIRow\<4\>\/XI0\<27\>\/MNM1_g \
 N_WL\<4\>_XIRow\<4\>\/XI0\<27\>\/MNM0_g \
 N_WL\<4\>_XIRow\<4\>\/XI0\<26\>\/MNM1_g \
 N_WL\<4\>_XIRow\<4\>\/XI0\<26\>\/MNM0_g \
 N_WL\<4\>_XIRow\<4\>\/XI0\<25\>\/MNM1_g \
 N_WL\<4\>_XIRow\<4\>\/XI0\<25\>\/MNM0_g \
 N_WL\<4\>_XIRow\<4\>\/XI0\<24\>\/MNM1_g \
 N_WL\<4\>_XIRow\<4\>\/XI0\<24\>\/MNM0_g \
 N_WL\<4\>_XIRow\<4\>\/XI0\<23\>\/MNM1_g \
 N_WL\<4\>_XIRow\<4\>\/XI0\<23\>\/MNM0_g \
 N_WL\<4\>_XIRow\<4\>\/XI0\<22\>\/MNM1_g \
 N_WL\<4\>_XIRow\<4\>\/XI0\<22\>\/MNM0_g \
 N_WL\<4\>_XIRow\<4\>\/XI0\<21\>\/MNM1_g \
 N_WL\<4\>_XIRow\<4\>\/XI0\<21\>\/MNM0_g \
 N_WL\<4\>_XIRow\<4\>\/XI0\<20\>\/MNM1_g \
 N_WL\<4\>_XIRow\<4\>\/XI0\<20\>\/MNM0_g \
 N_WL\<4\>_XIRow\<4\>\/XI0\<19\>\/MNM1_g \
 N_WL\<4\>_XIRow\<4\>\/XI0\<19\>\/MNM0_g \
 N_WL\<4\>_XIRow\<4\>\/XI0\<18\>\/MNM1_g \
 N_WL\<4\>_XIRow\<4\>\/XI0\<18\>\/MNM0_g \
 N_WL\<4\>_XIRow\<4\>\/XI0\<17\>\/MNM1_g \
 N_WL\<4\>_XIRow\<4\>\/XI0\<17\>\/MNM0_g \
 N_WL\<4\>_XIRow\<4\>\/XI0\<16\>\/MNM1_g \
 N_WL\<4\>_XIRow\<4\>\/XI0\<16\>\/MNM0_g \
 N_WL\<4\>_XIRow\<4\>\/XI0\<15\>\/MNM1_g \
 N_WL\<4\>_XIRow\<4\>\/XI0\<15\>\/MNM0_g \
 N_WL\<4\>_XIRow\<4\>\/XI0\<14\>\/MNM1_g \
 N_WL\<4\>_XIRow\<4\>\/XI0\<14\>\/MNM0_g \
 N_WL\<4\>_XIRow\<4\>\/XI0\<13\>\/MNM1_g \
 N_WL\<4\>_XIRow\<4\>\/XI0\<13\>\/MNM0_g \
 N_WL\<4\>_XIRow\<4\>\/XI0\<12\>\/MNM1_g \
 N_WL\<4\>_XIRow\<4\>\/XI0\<12\>\/MNM0_g \
 N_WL\<4\>_XIRow\<4\>\/XI0\<11\>\/MNM1_g \
 N_WL\<4\>_XIRow\<4\>\/XI0\<11\>\/MNM0_g \
 N_WL\<4\>_XIRow\<4\>\/XI0\<10\>\/MNM1_g \
 N_WL\<4\>_XIRow\<4\>\/XI0\<10\>\/MNM0_g \
 N_WL\<4\>_XIRow\<4\>\/XI0\<9\>\/MNM1_g N_WL\<4\>_XIRow\<4\>\/XI0\<9\>\/MNM0_g \
 N_WL\<4\>_XIRow\<4\>\/XI0\<8\>\/MNM1_g N_WL\<4\>_XIRow\<4\>\/XI0\<8\>\/MNM0_g \
 N_WL\<4\>_XIRow\<4\>\/XI0\<7\>\/MNM1_g N_WL\<4\>_XIRow\<4\>\/XI0\<7\>\/MNM0_g \
 N_WL\<4\>_XIRow\<4\>\/XI0\<6\>\/MNM1_g N_WL\<4\>_XIRow\<4\>\/XI0\<6\>\/MNM0_g \
 N_WL\<4\>_XIRow\<4\>\/XI0\<5\>\/MNM1_g N_WL\<4\>_XIRow\<4\>\/XI0\<5\>\/MNM0_g \
 N_WL\<4\>_XIRow\<4\>\/XI0\<4\>\/MNM1_g N_WL\<4\>_XIRow\<4\>\/XI0\<4\>\/MNM0_g \
 N_WL\<4\>_XIRow\<4\>\/XI0\<3\>\/MNM1_g N_WL\<4\>_XIRow\<4\>\/XI0\<3\>\/MNM0_g \
 N_WL\<4\>_XIRow\<4\>\/XI0\<2\>\/MNM1_g N_WL\<4\>_XIRow\<4\>\/XI0\<2\>\/MNM0_g \
 N_WL\<4\>_XIRow\<4\>\/XI0\<1\>\/MNM1_g N_WL\<4\>_XIRow\<4\>\/XI0\<1\>\/MNM0_g \
 WL\<4\> )  PM_BITCELLARRAY_PEX\%WL\<4\>
x_PM_BITCELLARRAY_PEX\%WL\<5\> ( N_WL\<5\>_XIRow\<5\>\/XI0\<0\>\/MNM1_g \
 N_WL\<5\>_XIRow\<5\>\/XI0\<0\>\/MNM0_g \
 N_WL\<5\>_XIRow\<5\>\/XI0\<31\>\/MNM1_g \
 N_WL\<5\>_XIRow\<5\>\/XI0\<31\>\/MNM0_g \
 N_WL\<5\>_XIRow\<5\>\/XI0\<30\>\/MNM1_g \
 N_WL\<5\>_XIRow\<5\>\/XI0\<30\>\/MNM0_g \
 N_WL\<5\>_XIRow\<5\>\/XI0\<29\>\/MNM1_g \
 N_WL\<5\>_XIRow\<5\>\/XI0\<29\>\/MNM0_g \
 N_WL\<5\>_XIRow\<5\>\/XI0\<28\>\/MNM1_g \
 N_WL\<5\>_XIRow\<5\>\/XI0\<28\>\/MNM0_g \
 N_WL\<5\>_XIRow\<5\>\/XI0\<27\>\/MNM1_g \
 N_WL\<5\>_XIRow\<5\>\/XI0\<27\>\/MNM0_g \
 N_WL\<5\>_XIRow\<5\>\/XI0\<26\>\/MNM1_g \
 N_WL\<5\>_XIRow\<5\>\/XI0\<26\>\/MNM0_g \
 N_WL\<5\>_XIRow\<5\>\/XI0\<25\>\/MNM1_g \
 N_WL\<5\>_XIRow\<5\>\/XI0\<25\>\/MNM0_g \
 N_WL\<5\>_XIRow\<5\>\/XI0\<24\>\/MNM1_g \
 N_WL\<5\>_XIRow\<5\>\/XI0\<24\>\/MNM0_g \
 N_WL\<5\>_XIRow\<5\>\/XI0\<23\>\/MNM1_g \
 N_WL\<5\>_XIRow\<5\>\/XI0\<23\>\/MNM0_g \
 N_WL\<5\>_XIRow\<5\>\/XI0\<22\>\/MNM1_g \
 N_WL\<5\>_XIRow\<5\>\/XI0\<22\>\/MNM0_g \
 N_WL\<5\>_XIRow\<5\>\/XI0\<21\>\/MNM1_g \
 N_WL\<5\>_XIRow\<5\>\/XI0\<21\>\/MNM0_g \
 N_WL\<5\>_XIRow\<5\>\/XI0\<20\>\/MNM1_g \
 N_WL\<5\>_XIRow\<5\>\/XI0\<20\>\/MNM0_g \
 N_WL\<5\>_XIRow\<5\>\/XI0\<19\>\/MNM1_g \
 N_WL\<5\>_XIRow\<5\>\/XI0\<19\>\/MNM0_g \
 N_WL\<5\>_XIRow\<5\>\/XI0\<18\>\/MNM1_g \
 N_WL\<5\>_XIRow\<5\>\/XI0\<18\>\/MNM0_g \
 N_WL\<5\>_XIRow\<5\>\/XI0\<17\>\/MNM1_g \
 N_WL\<5\>_XIRow\<5\>\/XI0\<17\>\/MNM0_g \
 N_WL\<5\>_XIRow\<5\>\/XI0\<16\>\/MNM1_g \
 N_WL\<5\>_XIRow\<5\>\/XI0\<16\>\/MNM0_g \
 N_WL\<5\>_XIRow\<5\>\/XI0\<15\>\/MNM1_g \
 N_WL\<5\>_XIRow\<5\>\/XI0\<15\>\/MNM0_g \
 N_WL\<5\>_XIRow\<5\>\/XI0\<14\>\/MNM1_g \
 N_WL\<5\>_XIRow\<5\>\/XI0\<14\>\/MNM0_g \
 N_WL\<5\>_XIRow\<5\>\/XI0\<13\>\/MNM1_g \
 N_WL\<5\>_XIRow\<5\>\/XI0\<13\>\/MNM0_g \
 N_WL\<5\>_XIRow\<5\>\/XI0\<12\>\/MNM1_g \
 N_WL\<5\>_XIRow\<5\>\/XI0\<12\>\/MNM0_g \
 N_WL\<5\>_XIRow\<5\>\/XI0\<11\>\/MNM1_g \
 N_WL\<5\>_XIRow\<5\>\/XI0\<11\>\/MNM0_g \
 N_WL\<5\>_XIRow\<5\>\/XI0\<10\>\/MNM1_g \
 N_WL\<5\>_XIRow\<5\>\/XI0\<10\>\/MNM0_g \
 N_WL\<5\>_XIRow\<5\>\/XI0\<9\>\/MNM1_g N_WL\<5\>_XIRow\<5\>\/XI0\<9\>\/MNM0_g \
 N_WL\<5\>_XIRow\<5\>\/XI0\<8\>\/MNM1_g N_WL\<5\>_XIRow\<5\>\/XI0\<8\>\/MNM0_g \
 N_WL\<5\>_XIRow\<5\>\/XI0\<7\>\/MNM1_g N_WL\<5\>_XIRow\<5\>\/XI0\<7\>\/MNM0_g \
 N_WL\<5\>_XIRow\<5\>\/XI0\<6\>\/MNM1_g N_WL\<5\>_XIRow\<5\>\/XI0\<6\>\/MNM0_g \
 N_WL\<5\>_XIRow\<5\>\/XI0\<5\>\/MNM1_g N_WL\<5\>_XIRow\<5\>\/XI0\<5\>\/MNM0_g \
 N_WL\<5\>_XIRow\<5\>\/XI0\<4\>\/MNM1_g N_WL\<5\>_XIRow\<5\>\/XI0\<4\>\/MNM0_g \
 N_WL\<5\>_XIRow\<5\>\/XI0\<3\>\/MNM1_g N_WL\<5\>_XIRow\<5\>\/XI0\<3\>\/MNM0_g \
 N_WL\<5\>_XIRow\<5\>\/XI0\<2\>\/MNM1_g N_WL\<5\>_XIRow\<5\>\/XI0\<2\>\/MNM0_g \
 N_WL\<5\>_XIRow\<5\>\/XI0\<1\>\/MNM1_g N_WL\<5\>_XIRow\<5\>\/XI0\<1\>\/MNM0_g \
 WL\<5\> )  PM_BITCELLARRAY_PEX\%WL\<5\>
x_PM_BITCELLARRAY_PEX\%WL\<6\> ( N_WL\<6\>_XIRow\<6\>\/XI0\<0\>\/MNM1_g \
 N_WL\<6\>_XIRow\<6\>\/XI0\<0\>\/MNM0_g \
 N_WL\<6\>_XIRow\<6\>\/XI0\<31\>\/MNM1_g \
 N_WL\<6\>_XIRow\<6\>\/XI0\<31\>\/MNM0_g \
 N_WL\<6\>_XIRow\<6\>\/XI0\<30\>\/MNM1_g \
 N_WL\<6\>_XIRow\<6\>\/XI0\<30\>\/MNM0_g \
 N_WL\<6\>_XIRow\<6\>\/XI0\<29\>\/MNM1_g \
 N_WL\<6\>_XIRow\<6\>\/XI0\<29\>\/MNM0_g \
 N_WL\<6\>_XIRow\<6\>\/XI0\<28\>\/MNM1_g \
 N_WL\<6\>_XIRow\<6\>\/XI0\<28\>\/MNM0_g \
 N_WL\<6\>_XIRow\<6\>\/XI0\<27\>\/MNM1_g \
 N_WL\<6\>_XIRow\<6\>\/XI0\<27\>\/MNM0_g \
 N_WL\<6\>_XIRow\<6\>\/XI0\<26\>\/MNM1_g \
 N_WL\<6\>_XIRow\<6\>\/XI0\<26\>\/MNM0_g \
 N_WL\<6\>_XIRow\<6\>\/XI0\<25\>\/MNM1_g \
 N_WL\<6\>_XIRow\<6\>\/XI0\<25\>\/MNM0_g \
 N_WL\<6\>_XIRow\<6\>\/XI0\<24\>\/MNM1_g \
 N_WL\<6\>_XIRow\<6\>\/XI0\<24\>\/MNM0_g \
 N_WL\<6\>_XIRow\<6\>\/XI0\<23\>\/MNM1_g \
 N_WL\<6\>_XIRow\<6\>\/XI0\<23\>\/MNM0_g \
 N_WL\<6\>_XIRow\<6\>\/XI0\<22\>\/MNM1_g \
 N_WL\<6\>_XIRow\<6\>\/XI0\<22\>\/MNM0_g \
 N_WL\<6\>_XIRow\<6\>\/XI0\<21\>\/MNM1_g \
 N_WL\<6\>_XIRow\<6\>\/XI0\<21\>\/MNM0_g \
 N_WL\<6\>_XIRow\<6\>\/XI0\<20\>\/MNM1_g \
 N_WL\<6\>_XIRow\<6\>\/XI0\<20\>\/MNM0_g \
 N_WL\<6\>_XIRow\<6\>\/XI0\<19\>\/MNM1_g \
 N_WL\<6\>_XIRow\<6\>\/XI0\<19\>\/MNM0_g \
 N_WL\<6\>_XIRow\<6\>\/XI0\<18\>\/MNM1_g \
 N_WL\<6\>_XIRow\<6\>\/XI0\<18\>\/MNM0_g \
 N_WL\<6\>_XIRow\<6\>\/XI0\<17\>\/MNM1_g \
 N_WL\<6\>_XIRow\<6\>\/XI0\<17\>\/MNM0_g \
 N_WL\<6\>_XIRow\<6\>\/XI0\<16\>\/MNM1_g \
 N_WL\<6\>_XIRow\<6\>\/XI0\<16\>\/MNM0_g \
 N_WL\<6\>_XIRow\<6\>\/XI0\<15\>\/MNM1_g \
 N_WL\<6\>_XIRow\<6\>\/XI0\<15\>\/MNM0_g \
 N_WL\<6\>_XIRow\<6\>\/XI0\<14\>\/MNM1_g \
 N_WL\<6\>_XIRow\<6\>\/XI0\<14\>\/MNM0_g \
 N_WL\<6\>_XIRow\<6\>\/XI0\<13\>\/MNM1_g \
 N_WL\<6\>_XIRow\<6\>\/XI0\<13\>\/MNM0_g \
 N_WL\<6\>_XIRow\<6\>\/XI0\<12\>\/MNM1_g \
 N_WL\<6\>_XIRow\<6\>\/XI0\<12\>\/MNM0_g \
 N_WL\<6\>_XIRow\<6\>\/XI0\<11\>\/MNM1_g \
 N_WL\<6\>_XIRow\<6\>\/XI0\<11\>\/MNM0_g \
 N_WL\<6\>_XIRow\<6\>\/XI0\<10\>\/MNM1_g \
 N_WL\<6\>_XIRow\<6\>\/XI0\<10\>\/MNM0_g \
 N_WL\<6\>_XIRow\<6\>\/XI0\<9\>\/MNM1_g N_WL\<6\>_XIRow\<6\>\/XI0\<9\>\/MNM0_g \
 N_WL\<6\>_XIRow\<6\>\/XI0\<8\>\/MNM1_g N_WL\<6\>_XIRow\<6\>\/XI0\<8\>\/MNM0_g \
 N_WL\<6\>_XIRow\<6\>\/XI0\<7\>\/MNM1_g N_WL\<6\>_XIRow\<6\>\/XI0\<7\>\/MNM0_g \
 N_WL\<6\>_XIRow\<6\>\/XI0\<6\>\/MNM1_g N_WL\<6\>_XIRow\<6\>\/XI0\<6\>\/MNM0_g \
 N_WL\<6\>_XIRow\<6\>\/XI0\<5\>\/MNM1_g N_WL\<6\>_XIRow\<6\>\/XI0\<5\>\/MNM0_g \
 N_WL\<6\>_XIRow\<6\>\/XI0\<4\>\/MNM1_g N_WL\<6\>_XIRow\<6\>\/XI0\<4\>\/MNM0_g \
 N_WL\<6\>_XIRow\<6\>\/XI0\<3\>\/MNM1_g N_WL\<6\>_XIRow\<6\>\/XI0\<3\>\/MNM0_g \
 N_WL\<6\>_XIRow\<6\>\/XI0\<2\>\/MNM1_g N_WL\<6\>_XIRow\<6\>\/XI0\<2\>\/MNM0_g \
 N_WL\<6\>_XIRow\<6\>\/XI0\<1\>\/MNM1_g N_WL\<6\>_XIRow\<6\>\/XI0\<1\>\/MNM0_g \
 WL\<6\> )  PM_BITCELLARRAY_PEX\%WL\<6\>
x_PM_BITCELLARRAY_PEX\%WL\<7\> ( N_WL\<7\>_XIRow\<7\>\/XI0\<0\>\/MNM1_g \
 N_WL\<7\>_XIRow\<7\>\/XI0\<0\>\/MNM0_g \
 N_WL\<7\>_XIRow\<7\>\/XI0\<31\>\/MNM1_g \
 N_WL\<7\>_XIRow\<7\>\/XI0\<31\>\/MNM0_g \
 N_WL\<7\>_XIRow\<7\>\/XI0\<30\>\/MNM1_g \
 N_WL\<7\>_XIRow\<7\>\/XI0\<30\>\/MNM0_g \
 N_WL\<7\>_XIRow\<7\>\/XI0\<29\>\/MNM1_g \
 N_WL\<7\>_XIRow\<7\>\/XI0\<29\>\/MNM0_g \
 N_WL\<7\>_XIRow\<7\>\/XI0\<28\>\/MNM1_g \
 N_WL\<7\>_XIRow\<7\>\/XI0\<28\>\/MNM0_g \
 N_WL\<7\>_XIRow\<7\>\/XI0\<27\>\/MNM1_g \
 N_WL\<7\>_XIRow\<7\>\/XI0\<27\>\/MNM0_g \
 N_WL\<7\>_XIRow\<7\>\/XI0\<26\>\/MNM1_g \
 N_WL\<7\>_XIRow\<7\>\/XI0\<26\>\/MNM0_g \
 N_WL\<7\>_XIRow\<7\>\/XI0\<25\>\/MNM1_g \
 N_WL\<7\>_XIRow\<7\>\/XI0\<25\>\/MNM0_g \
 N_WL\<7\>_XIRow\<7\>\/XI0\<24\>\/MNM1_g \
 N_WL\<7\>_XIRow\<7\>\/XI0\<24\>\/MNM0_g \
 N_WL\<7\>_XIRow\<7\>\/XI0\<23\>\/MNM1_g \
 N_WL\<7\>_XIRow\<7\>\/XI0\<23\>\/MNM0_g \
 N_WL\<7\>_XIRow\<7\>\/XI0\<22\>\/MNM1_g \
 N_WL\<7\>_XIRow\<7\>\/XI0\<22\>\/MNM0_g \
 N_WL\<7\>_XIRow\<7\>\/XI0\<21\>\/MNM1_g \
 N_WL\<7\>_XIRow\<7\>\/XI0\<21\>\/MNM0_g \
 N_WL\<7\>_XIRow\<7\>\/XI0\<20\>\/MNM1_g \
 N_WL\<7\>_XIRow\<7\>\/XI0\<20\>\/MNM0_g \
 N_WL\<7\>_XIRow\<7\>\/XI0\<19\>\/MNM1_g \
 N_WL\<7\>_XIRow\<7\>\/XI0\<19\>\/MNM0_g \
 N_WL\<7\>_XIRow\<7\>\/XI0\<18\>\/MNM1_g \
 N_WL\<7\>_XIRow\<7\>\/XI0\<18\>\/MNM0_g \
 N_WL\<7\>_XIRow\<7\>\/XI0\<17\>\/MNM1_g \
 N_WL\<7\>_XIRow\<7\>\/XI0\<17\>\/MNM0_g \
 N_WL\<7\>_XIRow\<7\>\/XI0\<16\>\/MNM1_g \
 N_WL\<7\>_XIRow\<7\>\/XI0\<16\>\/MNM0_g \
 N_WL\<7\>_XIRow\<7\>\/XI0\<15\>\/MNM1_g \
 N_WL\<7\>_XIRow\<7\>\/XI0\<15\>\/MNM0_g \
 N_WL\<7\>_XIRow\<7\>\/XI0\<14\>\/MNM1_g \
 N_WL\<7\>_XIRow\<7\>\/XI0\<14\>\/MNM0_g \
 N_WL\<7\>_XIRow\<7\>\/XI0\<13\>\/MNM1_g \
 N_WL\<7\>_XIRow\<7\>\/XI0\<13\>\/MNM0_g \
 N_WL\<7\>_XIRow\<7\>\/XI0\<12\>\/MNM1_g \
 N_WL\<7\>_XIRow\<7\>\/XI0\<12\>\/MNM0_g \
 N_WL\<7\>_XIRow\<7\>\/XI0\<11\>\/MNM1_g \
 N_WL\<7\>_XIRow\<7\>\/XI0\<11\>\/MNM0_g \
 N_WL\<7\>_XIRow\<7\>\/XI0\<10\>\/MNM1_g \
 N_WL\<7\>_XIRow\<7\>\/XI0\<10\>\/MNM0_g \
 N_WL\<7\>_XIRow\<7\>\/XI0\<9\>\/MNM1_g N_WL\<7\>_XIRow\<7\>\/XI0\<9\>\/MNM0_g \
 N_WL\<7\>_XIRow\<7\>\/XI0\<8\>\/MNM1_g N_WL\<7\>_XIRow\<7\>\/XI0\<8\>\/MNM0_g \
 N_WL\<7\>_XIRow\<7\>\/XI0\<7\>\/MNM1_g N_WL\<7\>_XIRow\<7\>\/XI0\<7\>\/MNM0_g \
 N_WL\<7\>_XIRow\<7\>\/XI0\<6\>\/MNM1_g N_WL\<7\>_XIRow\<7\>\/XI0\<6\>\/MNM0_g \
 N_WL\<7\>_XIRow\<7\>\/XI0\<5\>\/MNM1_g N_WL\<7\>_XIRow\<7\>\/XI0\<5\>\/MNM0_g \
 N_WL\<7\>_XIRow\<7\>\/XI0\<4\>\/MNM1_g N_WL\<7\>_XIRow\<7\>\/XI0\<4\>\/MNM0_g \
 N_WL\<7\>_XIRow\<7\>\/XI0\<3\>\/MNM1_g N_WL\<7\>_XIRow\<7\>\/XI0\<3\>\/MNM0_g \
 N_WL\<7\>_XIRow\<7\>\/XI0\<2\>\/MNM1_g N_WL\<7\>_XIRow\<7\>\/XI0\<2\>\/MNM0_g \
 N_WL\<7\>_XIRow\<7\>\/XI0\<1\>\/MNM1_g N_WL\<7\>_XIRow\<7\>\/XI0\<1\>\/MNM0_g \
 WL\<7\> )  PM_BITCELLARRAY_PEX\%WL\<7\>
x_PM_BITCELLARRAY_PEX\%WL\<8\> ( N_WL\<8\>_XIRow\<8\>\/XI0\<0\>\/MNM1_g \
 N_WL\<8\>_XIRow\<8\>\/XI0\<0\>\/MNM0_g \
 N_WL\<8\>_XIRow\<8\>\/XI0\<31\>\/MNM1_g \
 N_WL\<8\>_XIRow\<8\>\/XI0\<31\>\/MNM0_g \
 N_WL\<8\>_XIRow\<8\>\/XI0\<30\>\/MNM1_g \
 N_WL\<8\>_XIRow\<8\>\/XI0\<30\>\/MNM0_g \
 N_WL\<8\>_XIRow\<8\>\/XI0\<29\>\/MNM1_g \
 N_WL\<8\>_XIRow\<8\>\/XI0\<29\>\/MNM0_g \
 N_WL\<8\>_XIRow\<8\>\/XI0\<28\>\/MNM1_g \
 N_WL\<8\>_XIRow\<8\>\/XI0\<28\>\/MNM0_g \
 N_WL\<8\>_XIRow\<8\>\/XI0\<27\>\/MNM1_g \
 N_WL\<8\>_XIRow\<8\>\/XI0\<27\>\/MNM0_g \
 N_WL\<8\>_XIRow\<8\>\/XI0\<26\>\/MNM1_g \
 N_WL\<8\>_XIRow\<8\>\/XI0\<26\>\/MNM0_g \
 N_WL\<8\>_XIRow\<8\>\/XI0\<25\>\/MNM1_g \
 N_WL\<8\>_XIRow\<8\>\/XI0\<25\>\/MNM0_g \
 N_WL\<8\>_XIRow\<8\>\/XI0\<24\>\/MNM1_g \
 N_WL\<8\>_XIRow\<8\>\/XI0\<24\>\/MNM0_g \
 N_WL\<8\>_XIRow\<8\>\/XI0\<23\>\/MNM1_g \
 N_WL\<8\>_XIRow\<8\>\/XI0\<23\>\/MNM0_g \
 N_WL\<8\>_XIRow\<8\>\/XI0\<22\>\/MNM1_g \
 N_WL\<8\>_XIRow\<8\>\/XI0\<22\>\/MNM0_g \
 N_WL\<8\>_XIRow\<8\>\/XI0\<21\>\/MNM1_g \
 N_WL\<8\>_XIRow\<8\>\/XI0\<21\>\/MNM0_g \
 N_WL\<8\>_XIRow\<8\>\/XI0\<20\>\/MNM1_g \
 N_WL\<8\>_XIRow\<8\>\/XI0\<20\>\/MNM0_g \
 N_WL\<8\>_XIRow\<8\>\/XI0\<19\>\/MNM1_g \
 N_WL\<8\>_XIRow\<8\>\/XI0\<19\>\/MNM0_g \
 N_WL\<8\>_XIRow\<8\>\/XI0\<18\>\/MNM1_g \
 N_WL\<8\>_XIRow\<8\>\/XI0\<18\>\/MNM0_g \
 N_WL\<8\>_XIRow\<8\>\/XI0\<17\>\/MNM1_g \
 N_WL\<8\>_XIRow\<8\>\/XI0\<17\>\/MNM0_g \
 N_WL\<8\>_XIRow\<8\>\/XI0\<16\>\/MNM1_g \
 N_WL\<8\>_XIRow\<8\>\/XI0\<16\>\/MNM0_g \
 N_WL\<8\>_XIRow\<8\>\/XI0\<15\>\/MNM1_g \
 N_WL\<8\>_XIRow\<8\>\/XI0\<15\>\/MNM0_g \
 N_WL\<8\>_XIRow\<8\>\/XI0\<14\>\/MNM1_g \
 N_WL\<8\>_XIRow\<8\>\/XI0\<14\>\/MNM0_g \
 N_WL\<8\>_XIRow\<8\>\/XI0\<13\>\/MNM1_g \
 N_WL\<8\>_XIRow\<8\>\/XI0\<13\>\/MNM0_g \
 N_WL\<8\>_XIRow\<8\>\/XI0\<12\>\/MNM1_g \
 N_WL\<8\>_XIRow\<8\>\/XI0\<12\>\/MNM0_g \
 N_WL\<8\>_XIRow\<8\>\/XI0\<11\>\/MNM1_g \
 N_WL\<8\>_XIRow\<8\>\/XI0\<11\>\/MNM0_g \
 N_WL\<8\>_XIRow\<8\>\/XI0\<10\>\/MNM1_g \
 N_WL\<8\>_XIRow\<8\>\/XI0\<10\>\/MNM0_g \
 N_WL\<8\>_XIRow\<8\>\/XI0\<9\>\/MNM1_g N_WL\<8\>_XIRow\<8\>\/XI0\<9\>\/MNM0_g \
 N_WL\<8\>_XIRow\<8\>\/XI0\<8\>\/MNM1_g N_WL\<8\>_XIRow\<8\>\/XI0\<8\>\/MNM0_g \
 N_WL\<8\>_XIRow\<8\>\/XI0\<7\>\/MNM1_g N_WL\<8\>_XIRow\<8\>\/XI0\<7\>\/MNM0_g \
 N_WL\<8\>_XIRow\<8\>\/XI0\<6\>\/MNM1_g N_WL\<8\>_XIRow\<8\>\/XI0\<6\>\/MNM0_g \
 N_WL\<8\>_XIRow\<8\>\/XI0\<5\>\/MNM1_g N_WL\<8\>_XIRow\<8\>\/XI0\<5\>\/MNM0_g \
 N_WL\<8\>_XIRow\<8\>\/XI0\<4\>\/MNM1_g N_WL\<8\>_XIRow\<8\>\/XI0\<4\>\/MNM0_g \
 N_WL\<8\>_XIRow\<8\>\/XI0\<3\>\/MNM1_g N_WL\<8\>_XIRow\<8\>\/XI0\<3\>\/MNM0_g \
 N_WL\<8\>_XIRow\<8\>\/XI0\<2\>\/MNM1_g N_WL\<8\>_XIRow\<8\>\/XI0\<2\>\/MNM0_g \
 N_WL\<8\>_XIRow\<8\>\/XI0\<1\>\/MNM1_g N_WL\<8\>_XIRow\<8\>\/XI0\<1\>\/MNM0_g \
 WL\<8\> )  PM_BITCELLARRAY_PEX\%WL\<8\>
x_PM_BITCELLARRAY_PEX\%WL\<9\> ( N_WL\<9\>_XIRow\<9\>\/XI0\<0\>\/MNM1_g \
 N_WL\<9\>_XIRow\<9\>\/XI0\<0\>\/MNM0_g \
 N_WL\<9\>_XIRow\<9\>\/XI0\<31\>\/MNM1_g \
 N_WL\<9\>_XIRow\<9\>\/XI0\<31\>\/MNM0_g \
 N_WL\<9\>_XIRow\<9\>\/XI0\<30\>\/MNM1_g \
 N_WL\<9\>_XIRow\<9\>\/XI0\<30\>\/MNM0_g \
 N_WL\<9\>_XIRow\<9\>\/XI0\<29\>\/MNM1_g \
 N_WL\<9\>_XIRow\<9\>\/XI0\<29\>\/MNM0_g \
 N_WL\<9\>_XIRow\<9\>\/XI0\<28\>\/MNM1_g \
 N_WL\<9\>_XIRow\<9\>\/XI0\<28\>\/MNM0_g \
 N_WL\<9\>_XIRow\<9\>\/XI0\<27\>\/MNM1_g \
 N_WL\<9\>_XIRow\<9\>\/XI0\<27\>\/MNM0_g \
 N_WL\<9\>_XIRow\<9\>\/XI0\<26\>\/MNM1_g \
 N_WL\<9\>_XIRow\<9\>\/XI0\<26\>\/MNM0_g \
 N_WL\<9\>_XIRow\<9\>\/XI0\<25\>\/MNM1_g \
 N_WL\<9\>_XIRow\<9\>\/XI0\<25\>\/MNM0_g \
 N_WL\<9\>_XIRow\<9\>\/XI0\<24\>\/MNM1_g \
 N_WL\<9\>_XIRow\<9\>\/XI0\<24\>\/MNM0_g \
 N_WL\<9\>_XIRow\<9\>\/XI0\<23\>\/MNM1_g \
 N_WL\<9\>_XIRow\<9\>\/XI0\<23\>\/MNM0_g \
 N_WL\<9\>_XIRow\<9\>\/XI0\<22\>\/MNM1_g \
 N_WL\<9\>_XIRow\<9\>\/XI0\<22\>\/MNM0_g \
 N_WL\<9\>_XIRow\<9\>\/XI0\<21\>\/MNM1_g \
 N_WL\<9\>_XIRow\<9\>\/XI0\<21\>\/MNM0_g \
 N_WL\<9\>_XIRow\<9\>\/XI0\<20\>\/MNM1_g \
 N_WL\<9\>_XIRow\<9\>\/XI0\<20\>\/MNM0_g \
 N_WL\<9\>_XIRow\<9\>\/XI0\<19\>\/MNM1_g \
 N_WL\<9\>_XIRow\<9\>\/XI0\<19\>\/MNM0_g \
 N_WL\<9\>_XIRow\<9\>\/XI0\<18\>\/MNM1_g \
 N_WL\<9\>_XIRow\<9\>\/XI0\<18\>\/MNM0_g \
 N_WL\<9\>_XIRow\<9\>\/XI0\<17\>\/MNM1_g \
 N_WL\<9\>_XIRow\<9\>\/XI0\<17\>\/MNM0_g \
 N_WL\<9\>_XIRow\<9\>\/XI0\<16\>\/MNM1_g \
 N_WL\<9\>_XIRow\<9\>\/XI0\<16\>\/MNM0_g \
 N_WL\<9\>_XIRow\<9\>\/XI0\<15\>\/MNM1_g \
 N_WL\<9\>_XIRow\<9\>\/XI0\<15\>\/MNM0_g \
 N_WL\<9\>_XIRow\<9\>\/XI0\<14\>\/MNM1_g \
 N_WL\<9\>_XIRow\<9\>\/XI0\<14\>\/MNM0_g \
 N_WL\<9\>_XIRow\<9\>\/XI0\<13\>\/MNM1_g \
 N_WL\<9\>_XIRow\<9\>\/XI0\<13\>\/MNM0_g \
 N_WL\<9\>_XIRow\<9\>\/XI0\<12\>\/MNM1_g \
 N_WL\<9\>_XIRow\<9\>\/XI0\<12\>\/MNM0_g \
 N_WL\<9\>_XIRow\<9\>\/XI0\<11\>\/MNM1_g \
 N_WL\<9\>_XIRow\<9\>\/XI0\<11\>\/MNM0_g \
 N_WL\<9\>_XIRow\<9\>\/XI0\<10\>\/MNM1_g \
 N_WL\<9\>_XIRow\<9\>\/XI0\<10\>\/MNM0_g \
 N_WL\<9\>_XIRow\<9\>\/XI0\<9\>\/MNM1_g N_WL\<9\>_XIRow\<9\>\/XI0\<9\>\/MNM0_g \
 N_WL\<9\>_XIRow\<9\>\/XI0\<8\>\/MNM1_g N_WL\<9\>_XIRow\<9\>\/XI0\<8\>\/MNM0_g \
 N_WL\<9\>_XIRow\<9\>\/XI0\<7\>\/MNM1_g N_WL\<9\>_XIRow\<9\>\/XI0\<7\>\/MNM0_g \
 N_WL\<9\>_XIRow\<9\>\/XI0\<6\>\/MNM1_g N_WL\<9\>_XIRow\<9\>\/XI0\<6\>\/MNM0_g \
 N_WL\<9\>_XIRow\<9\>\/XI0\<5\>\/MNM1_g N_WL\<9\>_XIRow\<9\>\/XI0\<5\>\/MNM0_g \
 N_WL\<9\>_XIRow\<9\>\/XI0\<4\>\/MNM1_g N_WL\<9\>_XIRow\<9\>\/XI0\<4\>\/MNM0_g \
 N_WL\<9\>_XIRow\<9\>\/XI0\<3\>\/MNM1_g N_WL\<9\>_XIRow\<9\>\/XI0\<3\>\/MNM0_g \
 N_WL\<9\>_XIRow\<9\>\/XI0\<2\>\/MNM1_g N_WL\<9\>_XIRow\<9\>\/XI0\<2\>\/MNM0_g \
 N_WL\<9\>_XIRow\<9\>\/XI0\<1\>\/MNM1_g N_WL\<9\>_XIRow\<9\>\/XI0\<1\>\/MNM0_g \
 WL\<9\> )  PM_BITCELLARRAY_PEX\%WL\<9\>
x_PM_BITCELLARRAY_PEX\%WL\<10\> ( N_WL\<10\>_XIRow\<10\>\/XI0\<0\>\/MNM1_g \
 N_WL\<10\>_XIRow\<10\>\/XI0\<0\>\/MNM0_g \
 N_WL\<10\>_XIRow\<10\>\/XI0\<31\>\/MNM1_g \
 N_WL\<10\>_XIRow\<10\>\/XI0\<31\>\/MNM0_g \
 N_WL\<10\>_XIRow\<10\>\/XI0\<30\>\/MNM1_g \
 N_WL\<10\>_XIRow\<10\>\/XI0\<30\>\/MNM0_g \
 N_WL\<10\>_XIRow\<10\>\/XI0\<29\>\/MNM1_g \
 N_WL\<10\>_XIRow\<10\>\/XI0\<29\>\/MNM0_g \
 N_WL\<10\>_XIRow\<10\>\/XI0\<28\>\/MNM1_g \
 N_WL\<10\>_XIRow\<10\>\/XI0\<28\>\/MNM0_g \
 N_WL\<10\>_XIRow\<10\>\/XI0\<27\>\/MNM1_g \
 N_WL\<10\>_XIRow\<10\>\/XI0\<27\>\/MNM0_g \
 N_WL\<10\>_XIRow\<10\>\/XI0\<26\>\/MNM1_g \
 N_WL\<10\>_XIRow\<10\>\/XI0\<26\>\/MNM0_g \
 N_WL\<10\>_XIRow\<10\>\/XI0\<25\>\/MNM1_g \
 N_WL\<10\>_XIRow\<10\>\/XI0\<25\>\/MNM0_g \
 N_WL\<10\>_XIRow\<10\>\/XI0\<24\>\/MNM1_g \
 N_WL\<10\>_XIRow\<10\>\/XI0\<24\>\/MNM0_g \
 N_WL\<10\>_XIRow\<10\>\/XI0\<23\>\/MNM1_g \
 N_WL\<10\>_XIRow\<10\>\/XI0\<23\>\/MNM0_g \
 N_WL\<10\>_XIRow\<10\>\/XI0\<22\>\/MNM1_g \
 N_WL\<10\>_XIRow\<10\>\/XI0\<22\>\/MNM0_g \
 N_WL\<10\>_XIRow\<10\>\/XI0\<21\>\/MNM1_g \
 N_WL\<10\>_XIRow\<10\>\/XI0\<21\>\/MNM0_g \
 N_WL\<10\>_XIRow\<10\>\/XI0\<20\>\/MNM1_g \
 N_WL\<10\>_XIRow\<10\>\/XI0\<20\>\/MNM0_g \
 N_WL\<10\>_XIRow\<10\>\/XI0\<19\>\/MNM1_g \
 N_WL\<10\>_XIRow\<10\>\/XI0\<19\>\/MNM0_g \
 N_WL\<10\>_XIRow\<10\>\/XI0\<18\>\/MNM1_g \
 N_WL\<10\>_XIRow\<10\>\/XI0\<18\>\/MNM0_g \
 N_WL\<10\>_XIRow\<10\>\/XI0\<17\>\/MNM1_g \
 N_WL\<10\>_XIRow\<10\>\/XI0\<17\>\/MNM0_g \
 N_WL\<10\>_XIRow\<10\>\/XI0\<16\>\/MNM1_g \
 N_WL\<10\>_XIRow\<10\>\/XI0\<16\>\/MNM0_g \
 N_WL\<10\>_XIRow\<10\>\/XI0\<15\>\/MNM1_g \
 N_WL\<10\>_XIRow\<10\>\/XI0\<15\>\/MNM0_g \
 N_WL\<10\>_XIRow\<10\>\/XI0\<14\>\/MNM1_g \
 N_WL\<10\>_XIRow\<10\>\/XI0\<14\>\/MNM0_g \
 N_WL\<10\>_XIRow\<10\>\/XI0\<13\>\/MNM1_g \
 N_WL\<10\>_XIRow\<10\>\/XI0\<13\>\/MNM0_g \
 N_WL\<10\>_XIRow\<10\>\/XI0\<12\>\/MNM1_g \
 N_WL\<10\>_XIRow\<10\>\/XI0\<12\>\/MNM0_g \
 N_WL\<10\>_XIRow\<10\>\/XI0\<11\>\/MNM1_g \
 N_WL\<10\>_XIRow\<10\>\/XI0\<11\>\/MNM0_g \