// Generated for: spectre
// Generated on: Dec 17 16:26:22 2021
// Design library name: project_1x
// Design cell name: RowDecoder_256_1xP_TB
// Design view name: schematic
simulator lang=spectre
global 0 vdd! GND!
include "/dkits/umc/65nm/lms65ll/pdk_b09pb/umc65ll/../Models/Spectre/l65ll_v151.lib.scs" section=tt_ll_rvt12
include "/dkits/umc/65nm/lms65ll/pdk_b09pb/umc65ll/../Models/Spectre/l65ll_v151.lib.scs" section=tt_ll_hvt12
include "/dkits/umc/65nm/lms65ll/pdk_b09pb/umc65ll/../Models/Spectre/l65ll_v151.lib.scs" section=tt_ll_lvt12
include "/dkits/umc/65nm/lms65ll/pdk_b09pb/umc65ll/../Models/Spectre/l65ll_v151.lib.scs" section=tt_ll_io18
include "/dkits/umc/65nm/lms65ll/pdk_b09pb/umc65ll/../Models/Spectre/l65ll_v151.lib.scs" section=tt_ll_io25od33
include "/dkits/umc/65nm/lms65ll/pdk_b09pb/umc65ll/../Models/Spectre/l65ll_v151.lib.scs" section=tt_ll_io33
include "/dkits/umc/65nm/lms65ll/pdk_b09pb/umc65ll/../Models/Spectre/l65ll_v151.lib.scs" section=tt_ll_nvt12
include "/dkits/umc/65nm/lms65ll/pdk_b09pb/umc65ll/../Models/Spectre/l65ll_v151.lib.scs" section=tt_ll_nvt12_bpw
include "/dkits/umc/65nm/lms65ll/pdk_b09pb/umc65ll/../Models/Spectre/l65ll_v151.lib.scs" section=tt_ll_nvt18
include "/dkits/umc/65nm/lms65ll/pdk_b09pb/umc65ll/../Models/Spectre/l65ll_v151.lib.scs" section=tt_ll_nvt18_bpw
include "/dkits/umc/65nm/lms65ll/pdk_b09pb/umc65ll/../Models/Spectre/l65ll_v151.lib.scs" section=tt_ll_nvt25od33
include "/dkits/umc/65nm/lms65ll/pdk_b09pb/umc65ll/../Models/Spectre/l65ll_v151.lib.scs" section=tt_ll_nvt25od33_bpw
include "/dkits/umc/65nm/lms65ll/pdk_b09pb/umc65ll/../Models/Spectre/l65ll_v151.lib.scs" section=tt_ll_nvt33
include "/dkits/umc/65nm/lms65ll/pdk_b09pb/umc65ll/../Models/Spectre/l65ll_v151.lib.scs" section=tt_ll_nvt33_bpw
include "/dkits/umc/65nm/lms65ll/pdk_b09pb/umc65ll/../Models/Spectre/l65ll_v151.lib.scs" section=tt_ll_bjt
include "/dkits/umc/65nm/lms65ll/pdk_b09pb/umc65ll/../Models/Spectre/l65ll_v151.lib.scs" section=tt_ll_diode
include "/dkits/umc/65nm/lms65ll/pdk_b09pb/umc65ll/../Models/Spectre/l65ll_v151.lib.scs" section=tt_65_momcaps
include "/dkits/umc/65nm/lms65ll/pdk_b09pb/umc65ll/../Models/Spectre/l65ll_v151.lib.scs" section=tt_ll_ncap12
include "/dkits/umc/65nm/lms65ll/pdk_b09pb/umc65ll/../Models/Spectre/l65ll_v151.lib.scs" section=tt_ll_ncap18
include "/dkits/umc/65nm/lms65ll/pdk_b09pb/umc65ll/../Models/Spectre/l65ll_v151.lib.scs" section=tt_ll_ncap25
include "/dkits/umc/65nm/lms65ll/pdk_b09pb/umc65ll/../Models/Spectre/l65ll_v151.lib.scs" section=tt_ll_ncap33
include "/dkits/umc/65nm/lms65ll/pdk_b09pb/umc65ll/../Models/Spectre/l65ll_v151.lib.scs" section=tt_ll_pcap12
include "/dkits/umc/65nm/lms65ll/pdk_b09pb/umc65ll/../Models/Spectre/l65ll_v151.lib.scs" section=tt_ll_pcap18
include "/dkits/umc/65nm/lms65ll/pdk_b09pb/umc65ll/../Models/Spectre/l65ll_v151.lib.scs" section=tt_ll_pcap25
include "/dkits/umc/65nm/lms65ll/pdk_b09pb/umc65ll/../Models/Spectre/l65ll_v151.lib.scs" section=tt_ll_pcap33
include "/dkits/umc/65nm/lms65ll/pdk_b09pb/umc65ll/../Models/Spectre/l65ll_v151.lib.scs" section=tt_ll_res
include "/dkits/umc/65nm/lms65ll/pdk_b09pb/umc65ll/../Models/Spectre/L65LL_RVT12_V101_RF.lib.scs" section=tt
include "/dkits/umc/65nm/lms65ll/pdk_b09pb/umc65ll/../Models/Spectre/L65LL_HVT12_V101_RF.lib.scs" section=tt
include "/dkits/umc/65nm/lms65ll/pdk_b09pb/umc65ll/../Models/Spectre/L65LL_LVT12_V101_RF.lib.scs" section=tt
include "/dkits/umc/65nm/lms65ll/pdk_b09pb/umc65ll/../Models/Spectre/L65LL_IO18_V101_RF.lib.scs" section=tt
include "/dkits/umc/65nm/lms65ll/pdk_b09pb/umc65ll/../Models/Spectre/L65LL_IO25_V101_RF.lib.scs" section=tt
include "/dkits/umc/65nm/lms65ll/pdk_b09pb/umc65ll/../Models/Spectre/L65LL_IO33_V111_RF.lib.scs" section=tt
include "/dkits/umc/65nm/lms65ll/pdk_b09pb/umc65ll/../Models/Spectre/L65LL_VARMIS12_V111_RF.lib.scs" section=typ
include "/dkits/umc/65nm/lms65ll/pdk_b09pb/umc65ll/../Models/Spectre/L65LL_VARMIS18_V111_RF.lib.scs" section=typ
include "/dkits/umc/65nm/lms65ll/pdk_b09pb/umc65ll/../Models/Spectre/L65LL_VARMIS25_V121_RF.lib.scs" section=typ
include "/dkits/umc/65nm/lms65ll/pdk_b09pb/umc65ll/../Models/Spectre/L65LL_VARMIS33_V111_RF.lib.scs" section=typ
include "/dkits/umc/65nm/lms65ll/pdk_b09pb/umc65ll/../Models/Spectre/L65LL_VARDIOP_V101_RF.lib.scs" section=typ
include "/dkits/umc/65nm/lms65ll/pdk_b09pb/umc65ll/../Models/Spectre/momcaps_array_vp3_rfvcl_V101.lib.scs" section=typ
include "/dkits/umc/65nm/lms65ll/pdk_b09pb/umc65ll/../Models/Spectre/momcaps_array_vp4_rfvcl_V101.lib.scs" section=typ
include "/dkits/umc/65nm/lms65ll/pdk_b09pb/umc65ll/../Models/Spectre/momcaps_array_vp5_rfvcl_V101.lib.scs" section=typ
include "/dkits/umc/65nm/lms65ll/pdk_b09pb/umc65ll/../Models/Spectre/L65_MIMCAPS_20F_KF_V101_RF.lib.scs" section=tt
include "/dkits/umc/65nm/lms65ll/pdk_b09pb/umc65ll/../Models/Spectre/L65LL_RNPPO_V101_RF.lib.scs" section=typ
include "/dkits/umc/65nm/lms65ll/pdk_b09pb/umc65ll/../Models/Spectre/L65LL_RNNPO_V101_RF.lib.scs" section=typ
include "/dkits/umc/65nm/lms65ll/pdk_b09pb/umc65ll/../Models/Spectre/L65LL_RNHR_V101_RF.lib.scs" section=typ
include "/dkits/umc/65nm/lms65ll/pdk_b09pb/umc65ll/../Models/Spectre/L65_pad_rf_V101.lib.scs" section=typ

// Library name: project_common
// Cell name: INV
// View name: schematic
subckt INV A Z
parameters gamma=1 beta=2
    NM0 (Z A 0 0) n_12_llrvt l=60n w=gamma*80n sa=(((gamma*80n) / (1)) < 119.5n) ? 0.175u > ((90n) + 30n) ? 0.175u : ((90n) + 30n) : 140n > ((90n) + (15n + 55n)) ? 140n : ((90n) + (15n + 55n)) \
         sb=(((gamma*80n) / (1)) < 119.5n) ? 0.175u > ((90n) + 30n) ? 0.175u : ((90n) + 30n) : 140n > ((90n) + (15n + 55n)) ? 140n : ((90n) + (15n + 55n)) \
         nf=1 mis_flag=1 sd=(1) == 1 ? 0 : (((gamma*80n) / (1)) < 119.5n) ? 0.23u > ((90n) + 30n) ? 0.23u : ((90n) + 30n) : 130n > ((90n) + 110n) ? 130n : ((90n) + 110n) \
         as=((((((gamma*80n) / (1)) < 119.5n) ? 0.175u > ((90n) + 30n) ? 0.175u : ((90n) + 30n) : 140n > ((90n) + (15n + 55n)) ? 140n : ((90n) + (15n + 55n)))) * (gamma*80n) / (1)) + (((1) == 1 ? 0 : (((gamma*80n) / (1)) < 119.5n) ? 0.23u > ((90n) + 30n) ? 0.23u : ((90n) + 30n) : 130n > ((90n) + 110n) ? 130n : ((90n) + 110n)) * (gamma*80n) / (1) * 0) \
         ad=((((((gamma*80n) / (1)) < 119.5n) ? 0.175u > ((90n) + 30n) ? 0.175u : ((90n) + 30n) : 140n > ((90n) + (15n + 55n)) ? 140n : ((90n) + (15n + 55n)))) * (gamma*80n) / (1)) + (((1) == 1 ? 0 : (((gamma*80n) / (1)) < 119.5n) ? 0.23u > ((90n) + 30n) ? 0.23u : ((90n) + 30n) : 130n > ((90n) + 110n) ? 130n : ((90n) + 110n)) * (gamma*80n) / (1) * 0) \
         ps=((((((gamma*80n) / (1)) < 119.5n) ? 0.175u > ((90n) + 30n) ? 0.175u : ((90n) + 30n) : 140n > ((90n) + (15n + 55n)) ? 140n : ((90n) + (15n + 55n)))*2) + ((gamma*80n) / (1)*2)) + ((((1) == 1 ? 0 : (((gamma*80n) / (1)) < 119.5n) ? 0.23u > ((90n) + 30n) ? 0.23u : ((90n) + 30n) : 130n > ((90n) + 110n) ? 130n : ((90n) + 110n))*2) + ((gamma*80n) / (1)*2))*0 \
         pd=((((((gamma*80n) / (1)) < 119.5n) ? 0.175u > ((90n) + 30n) ? 0.175u : ((90n) + 30n) : 140n > ((90n) + (15n + 55n)) ? 140n : ((90n) + (15n + 55n)))*2) + ((gamma*80n) / (1)*2)) + ((((1) == 1 ? 0 : (((gamma*80n) / (1)) < 119.5n) ? 0.23u > ((90n) + 30n) ? 0.23u : ((90n) + 30n) : 130n > ((90n) + 110n) ? 130n : ((90n) + 110n))*2) + ((gamma*80n) / (1)*2))*0 \
         sca=((2.0u*2.0u)/((gamma*80n) / (1)))*(1/(150n)-1/((150n)+((gamma*80n) / (1)))) \
         scb=(1/(((gamma*80n) / (1))*2.0u))*(2.0u/10*(150n)*exp(-10*(150n)/2.0u)+((2.0u*2.0u)/100)*exp(-10*(150n)/2.0u)-(2.0u/10)*((150n)+((gamma*80n) / (1)))*exp(-10*((150n)+((gamma*80n) / (1)))/2.0u)-(2.0u*2.0u)/100*exp(-10*((150n)+((gamma*80n) / (1)))/2.0u)) \
         scc=(1/(((gamma*80n) / (1))*2.0u))*(2.0u/20*(150n)*exp(-20*(150n)/2.0u)+((2.0u*2.0u)/400)*exp(-20*(150n)/2.0u)-(2.0u/20)*((150n)+((gamma*80n) / (1)))*exp(-20*((150n)+((gamma*80n) / (1)))/2.0u)-(2.0u*2.0u)/400*exp(-20*((150n)+((gamma*80n) / (1)))/2.0u)) \
         m=1 mf=1
    PM0 (Z A vdd! vdd!) p_12_llrvt l=60n w=gamma*beta*80n sa=(((gamma*beta*80n) / (1)) < 119.5n) ? 0.175u > ((90n) + 30n) ? 0.175u : ((90n) + 30n) : 140n > ((90n) + (15n + 55n)) ? 140n : ((90n) + (15n + 55n)) \
         sb=(((gamma*beta*80n) / (1)) < 119.5n) ? 0.175u > ((90n) + 30n) ? 0.175u : ((90n) + 30n) : 140n > ((90n) + (15n + 55n)) ? 140n : ((90n) + (15n + 55n)) \
         nf=1 mis_flag=1 sd=(1) == 1 ? 0 : (((gamma*beta*80n) / (1)) < 119.5n) ? 0.23u > ((90n) + 30n) ? 0.23u : ((90n) + 30n) : 130n > ((90n) + 110n) ? 130n : ((90n) + 110n) \
         as=((((((gamma*beta*80n) / (1)) < 119.5n) ? 0.175u > ((90n) + 30n) ? 0.175u : ((90n) + 30n) : 140n > ((90n) + (15n + 55n)) ? 140n : ((90n) + (15n + 55n)))) * (gamma*beta*80n) / (1)) + (((1) == 1 ? 0 : (((gamma*beta*80n) / (1)) < 119.5n) ? 0.23u > ((90n) + 30n) ? 0.23u : ((90n) + 30n) : 130n > ((90n) + 110n) ? 130n : ((90n) + 110n)) * (gamma*beta*80n) / (1) * 0) \
         ad=((((((gamma*beta*80n) / (1)) < 119.5n) ? 0.175u > ((90n) + 30n) ? 0.175u : ((90n) + 30n) : 140n > ((90n) + (15n + 55n)) ? 140n : ((90n) + (15n + 55n)))) * (gamma*beta*80n) / (1)) + (((1) == 1 ? 0 : (((gamma*beta*80n) / (1)) < 119.5n) ? 0.23u > ((90n) + 30n) ? 0.23u : ((90n) + 30n) : 130n > ((90n) + 110n) ? 130n : ((90n) + 110n)) * (gamma*beta*80n) / (1) * 0) \
         ps=((((((gamma*beta*80n) / (1)) < 119.5n) ? 0.175u > ((90n) + 30n) ? 0.175u : ((90n) + 30n) : 140n > ((90n) + (15n + 55n)) ? 140n : ((90n) + (15n + 55n)))*2) + ((gamma*beta*80n) / (1)*2)) + ((((1) == 1 ? 0 : (((gamma*beta*80n) / (1)) < 119.5n) ? 0.23u > ((90n) + 30n) ? 0.23u : ((90n) + 30n) : 130n > ((90n) + 110n) ? 130n : ((90n) + 110n))*2) + ((gamma*beta*80n) / (1)*2))*0 \
         pd=((((((gamma*beta*80n) / (1)) < 119.5n) ? 0.175u > ((90n) + 30n) ? 0.175u : ((90n) + 30n) : 140n > ((90n) + (15n + 55n)) ? 140n : ((90n) + (15n + 55n)))*2) + ((gamma*beta*80n) / (1)*2)) + ((((1) == 1 ? 0 : (((gamma*beta*80n) / (1)) < 119.5n) ? 0.23u > ((90n) + 30n) ? 0.23u : ((90n) + 30n) : 130n > ((90n) + 110n) ? 130n : ((90n) + 110n))*2) + ((gamma*beta*80n) / (1)*2))*0 \
         sca=((2.0u*2.0u)/((gamma*beta*80n) / (1)))*(1/(150n)-1/((150n)+((gamma*beta*80n) / (1)))) \
         scb=(1/(((gamma*beta*80n) / (1))*2.0u))*(2.0u/10*(150n)*exp(-10*(150n)/2.0u)+((2.0u*2.0u)/100)*exp(-10*(150n)/2.0u)-(2.0u/10)*((150n)+((gamma*beta*80n) / (1)))*exp(-10*((150n)+((gamma*beta*80n) / (1)))/2.0u)-(2.0u*2.0u)/100*exp(-10*((150n)+((gamma*beta*80n) / (1)))/2.0u)) \
         scc=(1/(((gamma*beta*80n) / (1))*2.0u))*(2.0u/20*(150n)*exp(-20*(150n)/2.0u)+((2.0u*2.0u)/400)*exp(-20*(150n)/2.0u)-(2.0u/20)*((150n)+((gamma*beta*80n) / (1)))*exp(-20*((150n)+((gamma*beta*80n) / (1)))/2.0u)-(2.0u*2.0u)/400*exp(-20*((150n)+((gamma*beta*80n) / (1)))/2.0u)) \
         m=1 mf=1
ends INV
// End of subcircuit definition.

// Library name: project_common
// Cell name: NAND2
// View name: schematic
subckt NAND2 A B Z
parameters gamma=2 beta=1
    NM1 (net12 B 0 0) n_12_llrvt l=60n w=2*gamma*80n sa=(((2*gamma*80n) / (1)) < 119.5n) ? 0.175u > ((90n) + 30n) ? 0.175u : ((90n) + 30n) : 140n > ((90n) + (15n + 55n)) ? 140n : ((90n) + (15n + 55n)) \
         sb=(((2*gamma*80n) / (1)) < 119.5n) ? 0.175u > ((90n) + 30n) ? 0.175u : ((90n) + 30n) : 140n > ((90n) + (15n + 55n)) ? 140n : ((90n) + (15n + 55n)) \
         nf=1 mis_flag=1 sd=(1) == 1 ? 0 : (((2*gamma*80n) / (1)) < 119.5n) ? 0.23u > ((90n) + 30n) ? 0.23u : ((90n) + 30n) : 130n > ((90n) + 110n) ? 130n : ((90n) + 110n) \
         as=((((((2*gamma*80n) / (1)) < 119.5n) ? 0.175u > ((90n) + 30n) ? 0.175u : ((90n) + 30n) : 140n > ((90n) + (15n + 55n)) ? 140n : ((90n) + (15n + 55n)))) * (2*gamma*80n) / (1)) + (((1) == 1 ? 0 : (((2*gamma*80n) / (1)) < 119.5n) ? 0.23u > ((90n) + 30n) ? 0.23u : ((90n) + 30n) : 130n > ((90n) + 110n) ? 130n : ((90n) + 110n)) * (2*gamma*80n) / (1) * 0) \
         ad=((((((2*gamma*80n) / (1)) < 119.5n) ? 0.175u > ((90n) + 30n) ? 0.175u : ((90n) + 30n) : 140n > ((90n) + (15n + 55n)) ? 140n : ((90n) + (15n + 55n)))) * (2*gamma*80n) / (1)) + (((1) == 1 ? 0 : (((2*gamma*80n) / (1)) < 119.5n) ? 0.23u > ((90n) + 30n) ? 0.23u : ((90n) + 30n) : 130n > ((90n) + 110n) ? 130n : ((90n) + 110n)) * (2*gamma*80n) / (1) * 0) \
         ps=((((((2*gamma*80n) / (1)) < 119.5n) ? 0.175u > ((90n) + 30n) ? 0.175u : ((90n) + 30n) : 140n > ((90n) + (15n + 55n)) ? 140n : ((90n) + (15n + 55n)))*2) + ((2*gamma*80n) / (1)*2)) + ((((1) == 1 ? 0 : (((2*gamma*80n) / (1)) < 119.5n) ? 0.23u > ((90n) + 30n) ? 0.23u : ((90n) + 30n) : 130n > ((90n) + 110n) ? 130n : ((90n) + 110n))*2) + ((2*gamma*80n) / (1)*2))*0 \
         pd=((((((2*gamma*80n) / (1)) < 119.5n) ? 0.175u > ((90n) + 30n) ? 0.175u : ((90n) + 30n) : 140n > ((90n) + (15n + 55n)) ? 140n : ((90n) + (15n + 55n)))*2) + ((2*gamma*80n) / (1)*2)) + ((((1) == 1 ? 0 : (((2*gamma*80n) / (1)) < 119.5n) ? 0.23u > ((90n) + 30n) ? 0.23u : ((90n) + 30n) : 130n > ((90n) + 110n) ? 130n : ((90n) + 110n))*2) + ((2*gamma*80n) / (1)*2))*0 \
         sca=((2.0u*2.0u)/((2*gamma*80n) / (1)))*(1/(150n)-1/((150n)+((2*gamma*80n) / (1)))) \
         scb=(1/(((2*gamma*80n) / (1))*2.0u))*(2.0u/10*(150n)*exp(-10*(150n)/2.0u)+((2.0u*2.0u)/100)*exp(-10*(150n)/2.0u)-(2.0u/10)*((150n)+((2*gamma*80n) / (1)))*exp(-10*((150n)+((2*gamma*80n) / (1)))/2.0u)-(2.0u*2.0u)/100*exp(-10*((150n)+((2*gamma*80n) / (1)))/2.0u)) \
         scc=(1/(((2*gamma*80n) / (1))*2.0u))*(2.0u/20*(150n)*exp(-20*(150n)/2.0u)+((2.0u*2.0u)/400)*exp(-20*(150n)/2.0u)-(2.0u/20)*((150n)+((2*gamma*80n) / (1)))*exp(-20*((150n)+((2*gamma*80n) / (1)))/2.0u)-(2.0u*2.0u)/400*exp(-20*((150n)+((2*gamma*80n) / (1)))/2.0u)) \
         m=1 mf=1
    NM0 (Z A net12 0) n_12_llrvt l=60n w=2*gamma*80n sa=(((2*gamma*80n) / (1)) < 119.5n) ? 0.175u > ((90n) + 30n) ? 0.175u : ((90n) + 30n) : 140n > ((90n) + (15n + 55n)) ? 140n : ((90n) + (15n + 55n)) \
         sb=(((2*gamma*80n) / (1)) < 119.5n) ? 0.175u > ((90n) + 30n) ? 0.175u : ((90n) + 30n) : 140n > ((90n) + (15n + 55n)) ? 140n : ((90n) + (15n + 55n)) \
         nf=1 mis_flag=1 sd=(1) == 1 ? 0 : (((2*gamma*80n) / (1)) < 119.5n) ? 0.23u > ((90n) + 30n) ? 0.23u : ((90n) + 30n) : 130n > ((90n) + 110n) ? 130n : ((90n) + 110n) \
         as=((((((2*gamma*80n) / (1)) < 119.5n) ? 0.175u > ((90n) + 30n) ? 0.175u : ((90n) + 30n) : 140n > ((90n) + (15n + 55n)) ? 140n : ((90n) + (15n + 55n)))) * (2*gamma*80n) / (1)) + (((1) == 1 ? 0 : (((2*gamma*80n) / (1)) < 119.5n) ? 0.23u > ((90n) + 30n) ? 0.23u : ((90n) + 30n) : 130n > ((90n) + 110n) ? 130n : ((90n) + 110n)) * (2*gamma*80n) / (1) * 0) \
         ad=((((((2*gamma*80n) / (1)) < 119.5n) ? 0.175u > ((90n) + 30n) ? 0.175u : ((90n) + 30n) : 140n > ((90n) + (15n + 55n)) ? 140n : ((90n) + (15n + 55n)))) * (2*gamma*80n) / (1)) + (((1) == 1 ? 0 : (((2*gamma*80n) / (1)) < 119.5n) ? 0.23u > ((90n) + 30n) ? 0.23u : ((90n) + 30n) : 130n > ((90n) + 110n) ? 130n : ((90n) + 110n)) * (2*gamma*80n) / (1) * 0) \
         ps=((((((2*gamma*80n) / (1)) < 119.5n) ? 0.175u > ((90n) + 30n) ? 0.175u : ((90n) + 30n) : 140n > ((90n) + (15n + 55n)) ? 140n : ((90n) + (15n + 55n)))*2) + ((2*gamma*80n) / (1)*2)) + ((((1) == 1 ? 0 : (((2*gamma*80n) / (1)) < 119.5n) ? 0.23u > ((90n) + 30n) ? 0.23u : ((90n) + 30n) : 130n > ((90n) + 110n) ? 130n : ((90n) + 110n))*2) + ((2*gamma*80n) / (1)*2))*0 \
         pd=((((((2*gamma*80n) / (1)) < 119.5n) ? 0.175u > ((90n) + 30n) ? 0.175u : ((90n) + 30n) : 140n > ((90n) + (15n + 55n)) ? 140n : ((90n) + (15n + 55n)))*2) + ((2*gamma*80n) / (1)*2)) + ((((1) == 1 ? 0 : (((2*gamma*80n) / (1)) < 119.5n) ? 0.23u > ((90n) + 30n) ? 0.23u : ((90n) + 30n) : 130n > ((90n) + 110n) ? 130n : ((90n) + 110n))*2) + ((2*gamma*80n) / (1)*2))*0 \
         sca=((2.0u*2.0u)/((2*gamma*80n) / (1)))*(1/(150n)-1/((150n)+((2*gamma*80n) / (1)))) \
         scb=(1/(((2*gamma*80n) / (1))*2.0u))*(2.0u/10*(150n)*exp(-10*(150n)/2.0u)+((2.0u*2.0u)/100)*exp(-10*(150n)/2.0u)-(2.0u/10)*((150n)+((2*gamma*80n) / (1)))*exp(-10*((150n)+((2*gamma*80n) / (1)))/2.0u)-(2.0u*2.0u)/100*exp(-10*((150n)+((2*gamma*80n) / (1)))/2.0u)) \
         scc=(1/(((2*gamma*80n) / (1))*2.0u))*(2.0u/20*(150n)*exp(-20*(150n)/2.0u)+((2.0u*2.0u)/400)*exp(-20*(150n)/2.0u)-(2.0u/20)*((150n)+((2*gamma*80n) / (1)))*exp(-20*((150n)+((2*gamma*80n) / (1)))/2.0u)-(2.0u*2.0u)/400*exp(-20*((150n)+((2*gamma*80n) / (1)))/2.0u)) \
         m=1 mf=1
    PM1 (Z B vdd! vdd!) p_12_llrvt l=60n w=gamma*beta*80n sa=(((gamma*beta*80n) / (1)) < 119.5n) ? 0.175u > ((90n) + 30n) ? 0.175u : ((90n) + 30n) : 140n > ((90n) + (15n + 55n)) ? 140n : ((90n) + (15n + 55n)) \
         sb=(((gamma*beta*80n) / (1)) < 119.5n) ? 0.175u > ((90n) + 30n) ? 0.175u : ((90n) + 30n) : 140n > ((90n) + (15n + 55n)) ? 140n : ((90n) + (15n + 55n)) \
         nf=1 mis_flag=1 sd=(1) == 1 ? 0 : (((gamma*beta*80n) / (1)) < 119.5n) ? 0.23u > ((90n) + 30n) ? 0.23u : ((90n) + 30n) : 130n > ((90n) + 110n) ? 130n : ((90n) + 110n) \
         as=((((((gamma*beta*80n) / (1)) < 119.5n) ? 0.175u > ((90n) + 30n) ? 0.175u : ((90n) + 30n) : 140n > ((90n) + (15n + 55n)) ? 140n : ((90n) + (15n + 55n)))) * (gamma*beta*80n) / (1)) + (((1) == 1 ? 0 : (((gamma*beta*80n) / (1)) < 119.5n) ? 0.23u > ((90n) + 30n) ? 0.23u : ((90n) + 30n) : 130n > ((90n) + 110n) ? 130n : ((90n) + 110n)) * (gamma*beta*80n) / (1) * 0) \
         ad=((((((gamma*beta*80n) / (1)) < 119.5n) ? 0.175u > ((90n) + 30n) ? 0.175u : ((90n) + 30n) : 140n > ((90n) + (15n + 55n)) ? 140n : ((90n) + (15n + 55n)))) * (gamma*beta*80n) / (1)) + (((1) == 1 ? 0 : (((gamma*beta*80n) / (1)) < 119.5n) ? 0.23u > ((90n) + 30n) ? 0.23u : ((90n) + 30n) : 130n > ((90n) + 110n) ? 130n : ((90n) + 110n)) * (gamma*beta*80n) / (1) * 0) \
         ps=((((((gamma*beta*80n) / (1)) < 119.5n) ? 0.175u > ((90n) + 30n) ? 0.175u : ((90n) + 30n) : 140n > ((90n) + (15n + 55n)) ? 140n : ((90n) + (15n + 55n)))*2) + ((gamma*beta*80n) / (1)*2)) + ((((1) == 1 ? 0 : (((gamma*beta*80n) / (1)) < 119.5n) ? 0.23u > ((90n) + 30n) ? 0.23u : ((90n) + 30n) : 130n > ((90n) + 110n) ? 130n : ((90n) + 110n))*2) + ((gamma*beta*80n) / (1)*2))*0 \
         pd=((((((gamma*beta*80n) / (1)) < 119.5n) ? 0.175u > ((90n) + 30n) ? 0.175u : ((90n) + 30n) : 140n > ((90n) + (15n + 55n)) ? 140n : ((90n) + (15n + 55n)))*2) + ((gamma*beta*80n) / (1)*2)) + ((((1) == 1 ? 0 : (((gamma*beta*80n) / (1)) < 119.5n) ? 0.23u > ((90n) + 30n) ? 0.23u : ((90n) + 30n) : 130n > ((90n) + 110n) ? 130n : ((90n) + 110n))*2) + ((gamma*beta*80n) / (1)*2))*0 \
         sca=((2.0u*2.0u)/((gamma*beta*80n) / (1)))*(1/(150n)-1/((150n)+((gamma*beta*80n) / (1)))) \
         scb=(1/(((gamma*beta*80n) / (1))*2.0u))*(2.0u/10*(150n)*exp(-10*(150n)/2.0u)+((2.0u*2.0u)/100)*exp(-10*(150n)/2.0u)-(2.0u/10)*((150n)+((gamma*beta*80n) / (1)))*exp(-10*((150n)+((gamma*beta*80n) / (1)))/2.0u)-(2.0u*2.0u)/100*exp(-10*((150n)+((gamma*beta*80n) / (1)))/2.0u)) \
         scc=(1/(((gamma*beta*80n) / (1))*2.0u))*(2.0u/20*(150n)*exp(-20*(150n)/2.0u)+((2.0u*2.0u)/400)*exp(-20*(150n)/2.0u)-(2.0u/20)*((150n)+((gamma*beta*80n) / (1)))*exp(-20*((150n)+((gamma*beta*80n) / (1)))/2.0u)-(2.0u*2.0u)/400*exp(-20*((150n)+((gamma*beta*80n) / (1)))/2.0u)) \
         m=1 mf=1
    PM0 (Z A vdd! vdd!) p_12_llrvt l=60n w=gamma*beta*80n sa=(((gamma*beta*80n) / (1)) < 119.5n) ? 0.175u > ((90n) + 30n) ? 0.175u : ((90n) + 30n) : 140n > ((90n) + (15n + 55n)) ? 140n : ((90n) + (15n + 55n)) \
         sb=(((gamma*beta*80n) / (1)) < 119.5n) ? 0.175u > ((90n) + 30n) ? 0.175u : ((90n) + 30n) : 140n > ((90n) + (15n + 55n)) ? 140n : ((90n) + (15n + 55n)) \
         nf=1 mis_flag=1 sd=(1) == 1 ? 0 : (((gamma*beta*80n) / (1)) < 119.5n) ? 0.23u > ((90n) + 30n) ? 0.23u : ((90n) + 30n) : 130n > ((90n) + 110n) ? 130n : ((90n) + 110n) \
         as=((((((gamma*beta*80n) / (1)) < 119.5n) ? 0.175u > ((90n) + 30n) ? 0.175u : ((90n) + 30n) : 140n > ((90n) + (15n + 55n)) ? 140n : ((90n) + (15n + 55n)))) * (gamma*beta*80n) / (1)) + (((1) == 1 ? 0 : (((gamma*beta*80n) / (1)) < 119.5n) ? 0.23u > ((90n) + 30n) ? 0.23u : ((90n) + 30n) : 130n > ((90n) + 110n) ? 130n : ((90n) + 110n)) * (gamma*beta*80n) / (1) * 0) \
         ad=((((((gamma*beta*80n) / (1)) < 119.5n) ? 0.175u > ((90n) + 30n) ? 0.175u : ((90n) + 30n) : 140n > ((90n) + (15n + 55n)) ? 140n : ((90n) + (15n + 55n)))) * (gamma*beta*80n) / (1)) + (((1) == 1 ? 0 : (((gamma*beta*80n) / (1)) < 119.5n) ? 0.23u > ((90n) + 30n) ? 0.23u : ((90n) + 30n) : 130n > ((90n) + 110n) ? 130n : ((90n) + 110n)) * (gamma*beta*80n) / (1) * 0) \
         ps=((((((gamma*beta*80n) / (1)) < 119.5n) ? 0.175u > ((90n) + 30n) ? 0.175u : ((90n) + 30n) : 140n > ((90n) + (15n + 55n)) ? 140n : ((90n) + (15n + 55n)))*2) + ((gamma*beta*80n) / (1)*2)) + ((((1) == 1 ? 0 : (((gamma*beta*80n) / (1)) < 119.5n) ? 0.23u > ((90n) + 30n) ? 0.23u : ((90n) + 30n) : 130n > ((90n) + 110n) ? 130n : ((90n) + 110n))*2) + ((gamma*beta*80n) / (1)*2))*0 \
         pd=((((((gamma*beta*80n) / (1)) < 119.5n) ? 0.175u > ((90n) + 30n) ? 0.175u : ((90n) + 30n) : 140n > ((90n) + (15n + 55n)) ? 140n : ((90n) + (15n + 55n)))*2) + ((gamma*beta*80n) / (1)*2)) + ((((1) == 1 ? 0 : (((gamma*beta*80n) / (1)) < 119.5n) ? 0.23u > ((90n) + 30n) ? 0.23u : ((90n) + 30n) : 130n > ((90n) + 110n) ? 130n : ((90n) + 110n))*2) + ((gamma*beta*80n) / (1)*2))*0 \
         sca=((2.0u*2.0u)/((gamma*beta*80n) / (1)))*(1/(150n)-1/((150n)+((gamma*beta*80n) / (1)))) \
         scb=(1/(((gamma*beta*80n) / (1))*2.0u))*(2.0u/10*(150n)*exp(-10*(150n)/2.0u)+((2.0u*2.0u)/100)*exp(-10*(150n)/2.0u)-(2.0u/10)*((150n)+((gamma*beta*80n) / (1)))*exp(-10*((150n)+((gamma*beta*80n) / (1)))/2.0u)-(2.0u*2.0u)/100*exp(-10*((150n)+((gamma*beta*80n) / (1)))/2.0u)) \
         scc=(1/(((gamma*beta*80n) / (1))*2.0u))*(2.0u/20*(150n)*exp(-20*(150n)/2.0u)+((2.0u*2.0u)/400)*exp(-20*(150n)/2.0u)-(2.0u/20)*((150n)+((gamma*beta*80n) / (1)))*exp(-20*((150n)+((gamma*beta*80n) / (1)))/2.0u)-(2.0u*2.0u)/400*exp(-20*((150n)+((gamma*beta*80n) / (1)))/2.0u)) \
         m=1 mf=1
ends NAND2
// End of subcircuit definition.

// Library name: project_common
// Cell name: NOR2
// View name: schematic
subckt NOR2 A B Z
parameters gamma=1 beta=2
    NM1 (Z B 0 0) n_12_llrvt l=60n w=gamma*80n sa=(((gamma*80n) / (1)) < 119.5n) ? 0.175u > ((90n) + 30n) ? 0.175u : ((90n) + 30n) : 140n > ((90n) + (15n + 55n)) ? 140n : ((90n) + (15n + 55n)) \
         sb=(((gamma*80n) / (1)) < 119.5n) ? 0.175u > ((90n) + 30n) ? 0.175u : ((90n) + 30n) : 140n > ((90n) + (15n + 55n)) ? 140n : ((90n) + (15n + 55n)) \
         nf=1 mis_flag=1 sd=(1) == 1 ? 0 : (((gamma*80n) / (1)) < 119.5n) ? 0.23u > ((90n) + 30n) ? 0.23u : ((90n) + 30n) : 130n > ((90n) + 110n) ? 130n : ((90n) + 110n) \
         as=((((((gamma*80n) / (1)) < 119.5n) ? 0.175u > ((90n) + 30n) ? 0.175u : ((90n) + 30n) : 140n > ((90n) + (15n + 55n)) ? 140n : ((90n) + (15n + 55n)))) * (gamma*80n) / (1)) + (((1) == 1 ? 0 : (((gamma*80n) / (1)) < 119.5n) ? 0.23u > ((90n) + 30n) ? 0.23u : ((90n) + 30n) : 130n > ((90n) + 110n) ? 130n : ((90n) + 110n)) * (gamma*80n) / (1) * 0) \
         ad=((((((gamma*80n) / (1)) < 119.5n) ? 0.175u > ((90n) + 30n) ? 0.175u : ((90n) + 30n) : 140n > ((90n) + (15n + 55n)) ? 140n : ((90n) + (15n + 55n)))) * (gamma*80n) / (1)) + (((1) == 1 ? 0 : (((gamma*80n) / (1)) < 119.5n) ? 0.23u > ((90n) + 30n) ? 0.23u : ((90n) + 30n) : 130n > ((90n) + 110n) ? 130n : ((90n) + 110n)) * (gamma*80n) / (1) * 0) \
         ps=((((((gamma*80n) / (1)) < 119.5n) ? 0.175u > ((90n) + 30n) ? 0.175u : ((90n) + 30n) : 140n > ((90n) + (15n + 55n)) ? 140n : ((90n) + (15n + 55n)))*2) + ((gamma*80n) / (1)*2)) + ((((1) == 1 ? 0 : (((gamma*80n) / (1)) < 119.5n) ? 0.23u > ((90n) + 30n) ? 0.23u : ((90n) + 30n) : 130n > ((90n) + 110n) ? 130n : ((90n) + 110n))*2) + ((gamma*80n) / (1)*2))*0 \
         pd=((((((gamma*80n) / (1)) < 119.5n) ? 0.175u > ((90n) + 30n) ? 0.175u : ((90n) + 30n) : 140n > ((90n) + (15n + 55n)) ? 140n : ((90n) + (15n + 55n)))*2) + ((gamma*80n) / (1)*2)) + ((((1) == 1 ? 0 : (((gamma*80n) / (1)) < 119.5n) ? 0.23u > ((90n) + 30n) ? 0.23u : ((90n) + 30n) : 130n > ((90n) + 110n) ? 130n : ((90n) + 110n))*2) + ((gamma*80n) / (1)*2))*0 \
         sca=((2.0u*2.0u)/((gamma*80n) / (1)))*(1/(150n)-1/((150n)+((gamma*80n) / (1)))) \
         scb=(1/(((gamma*80n) / (1))*2.0u))*(2.0u/10*(150n)*exp(-10*(150n)/2.0u)+((2.0u*2.0u)/100)*exp(-10*(150n)/2.0u)-(2.0u/10)*((150n)+((gamma*80n) / (1)))*exp(-10*((150n)+((gamma*80n) / (1)))/2.0u)-(2.0u*2.0u)/100*exp(-10*((150n)+((gamma*80n) / (1)))/2.0u)) \
         scc=(1/(((gamma*80n) / (1))*2.0u))*(2.0u/20*(150n)*exp(-20*(150n)/2.0u)+((2.0u*2.0u)/400)*exp(-20*(150n)/2.0u)-(2.0u/20)*((150n)+((gamma*80n) / (1)))*exp(-20*((150n)+((gamma*80n) / (1)))/2.0u)-(2.0u*2.0u)/400*exp(-20*((150n)+((gamma*80n) / (1)))/2.0u)) \
         m=1 mf=1
    NM0 (Z A 0 0) n_12_llrvt l=60n w=gamma*80n sa=(((gamma*80n) / (1)) < 119.5n) ? 0.175u > ((90n) + 30n) ? 0.175u : ((90n) + 30n) : 140n > ((90n) + (15n + 55n)) ? 140n : ((90n) + (15n + 55n)) \
         sb=(((gamma*80n) / (1)) < 119.5n) ? 0.175u > ((90n) + 30n) ? 0.175u : ((90n) + 30n) : 140n > ((90n) + (15n + 55n)) ? 140n : ((90n) + (15n + 55n)) \
         nf=1 mis_flag=1 sd=(1) == 1 ? 0 : (((gamma*80n) / (1)) < 119.5n) ? 0.23u > ((90n) + 30n) ? 0.23u : ((90n) + 30n) : 130n > ((90n) + 110n) ? 130n : ((90n) + 110n) \
         as=((((((gamma*80n) / (1)) < 119.5n) ? 0.175u > ((90n) + 30n) ? 0.175u : ((90n) + 30n) : 140n > ((90n) + (15n + 55n)) ? 140n : ((90n) + (15n + 55n)))) * (gamma*80n) / (1)) + (((1) == 1 ? 0 : (((gamma*80n) / (1)) < 119.5n) ? 0.23u > ((90n) + 30n) ? 0.23u : ((90n) + 30n) : 130n > ((90n) + 110n) ? 130n : ((90n) + 110n)) * (gamma*80n) / (1) * 0) \
         ad=((((((gamma*80n) / (1)) < 119.5n) ? 0.175u > ((90n) + 30n) ? 0.175u : ((90n) + 30n) : 140n > ((90n) + (15n + 55n)) ? 140n : ((90n) + (15n + 55n)))) * (gamma*80n) / (1)) + (((1) == 1 ? 0 : (((gamma*80n) / (1)) < 119.5n) ? 0.23u > ((90n) + 30n) ? 0.23u : ((90n) + 30n) : 130n > ((90n) + 110n) ? 130n : ((90n) + 110n)) * (gamma*80n) / (1) * 0) \
         ps=((((((gamma*80n) / (1)) < 119.5n) ? 0.175u > ((90n) + 30n) ? 0.175u : ((90n) + 30n) : 140n > ((90n) + (15n + 55n)) ? 140n : ((90n) + (15n + 55n)))*2) + ((gamma*80n) / (1)*2)) + ((((1) == 1 ? 0 : (((gamma*80n) / (1)) < 119.5n) ? 0.23u > ((90n) + 30n) ? 0.23u : ((90n) + 30n) : 130n > ((90n) + 110n) ? 130n : ((90n) + 110n))*2) + ((gamma*80n) / (1)*2))*0 \
         pd=((((((gamma*80n) / (1)) < 119.5n) ? 0.175u > ((90n) + 30n) ? 0.175u : ((90n) + 30n) : 140n > ((90n) + (15n + 55n)) ? 140n : ((90n) + (15n + 55n)))*2) + ((gamma*80n) / (1)*2)) + ((((1) == 1 ? 0 : (((gamma*80n) / (1)) < 119.5n) ? 0.23u > ((90n) + 30n) ? 0.23u : ((90n) + 30n) : 130n > ((90n) + 110n) ? 130n : ((90n) + 110n))*2) + ((gamma*80n) / (1)*2))*0 \
         sca=((2.0u*2.0u)/((gamma*80n) / (1)))*(1/(150n)-1/((150n)+((gamma*80n) / (1)))) \
         scb=(1/(((gamma*80n) / (1))*2.0u))*(2.0u/10*(150n)*exp(-10*(150n)/2.0u)+((2.0u*2.0u)/100)*exp(-10*(150n)/2.0u)-(2.0u/10)*((150n)+((gamma*80n) / (1)))*exp(-10*((150n)+((gamma*80n) / (1)))/2.0u)-(2.0u*2.0u)/100*exp(-10*((150n)+((gamma*80n) / (1)))/2.0u)) \
         scc=(1/(((gamma*80n) / (1))*2.0u))*(2.0u/20*(150n)*exp(-20*(150n)/2.0u)+((2.0u*2.0u)/400)*exp(-20*(150n)/2.0u)-(2.0u/20)*((150n)+((gamma*80n) / (1)))*exp(-20*((150n)+((gamma*80n) / (1)))/2.0u)-(2.0u*2.0u)/400*exp(-20*((150n)+((gamma*80n) / (1)))/2.0u)) \
         m=1 mf=1
    PM1 (Z B net07 vdd!) p_12_llrvt l=60n w=2*gamma*beta*80n sa=(((2*gamma*beta*80n) / (1)) < 119.5n) ? 0.175u > ((90n) + 30n) ? 0.175u : ((90n) + 30n) : 140n > ((90n) + (15n + 55n)) ? 140n : ((90n) + (15n + 55n)) \
         sb=(((2*gamma*beta*80n) / (1)) < 119.5n) ? 0.175u > ((90n) + 30n) ? 0.175u : ((90n) + 30n) : 140n > ((90n) + (15n + 55n)) ? 140n : ((90n) + (15n + 55n)) \
         nf=1 mis_flag=1 sd=(1) == 1 ? 0 : (((2*gamma*beta*80n) / (1)) < 119.5n) ? 0.23u > ((90n) + 30n) ? 0.23u : ((90n) + 30n) : 130n > ((90n) + 110n) ? 130n : ((90n) + 110n) \
         as=((((((2*gamma*beta*80n) / (1)) < 119.5n) ? 0.175u > ((90n) + 30n) ? 0.175u : ((90n) + 30n) : 140n > ((90n) + (15n + 55n)) ? 140n : ((90n) + (15n + 55n)))) * (2*gamma*beta*80n) / (1)) + (((1) == 1 ? 0 : (((2*gamma*beta*80n) / (1)) < 119.5n) ? 0.23u > ((90n) + 30n) ? 0.23u : ((90n) + 30n) : 130n > ((90n) + 110n) ? 130n : ((90n) + 110n)) * (2*gamma*beta*80n) / (1) * 0) \
         ad=((((((2*gamma*beta*80n) / (1)) < 119.5n) ? 0.175u > ((90n) + 30n) ? 0.175u : ((90n) + 30n) : 140n > ((90n) + (15n + 55n)) ? 140n : ((90n) + (15n + 55n)))) * (2*gamma*beta*80n) / (1)) + (((1) == 1 ? 0 : (((2*gamma*beta*80n) / (1)) < 119.5n) ? 0.23u > ((90n) + 30n) ? 0.23u : ((90n) + 30n) : 130n > ((90n) + 110n) ? 130n : ((90n) + 110n)) * (2*gamma*beta*80n) / (1) * 0) \
         ps=((((((2*gamma*beta*80n) / (1)) < 119.5n) ? 0.175u > ((90n) + 30n) ? 0.175u : ((90n) + 30n) : 140n > ((90n) + (15n + 55n)) ? 140n : ((90n) + (15n + 55n)))*2) + ((2*gamma*beta*80n) / (1)*2)) + ((((1) == 1 ? 0 : (((2*gamma*beta*80n) / (1)) < 119.5n) ? 0.23u > ((90n) + 30n) ? 0.23u : ((90n) + 30n) : 130n > ((90n) + 110n) ? 130n : ((90n) + 110n))*2) + ((2*gamma*beta*80n) / (1)*2))*0 \
         pd=((((((2*gamma*beta*80n) / (1)) < 119.5n) ? 0.175u > ((90n) + 30n) ? 0.175u : ((90n) + 30n) : 140n > ((90n) + (15n + 55n)) ? 140n : ((90n) + (15n + 55n)))*2) + ((2*gamma*beta*80n) / (1)*2)) + ((((1) == 1 ? 0 : (((2*gamma*beta*80n) / (1)) < 119.5n) ? 0.23u > ((90n) + 30n) ? 0.23u : ((90n) + 30n) : 130n > ((90n) + 110n) ? 130n : ((90n) + 110n))*2) + ((2*gamma*beta*80n) / (1)*2))*0 \
         sca=((2.0u*2.0u)/((2*gamma*beta*80n) / (1)))*(1/(150n)-1/((150n)+((2*gamma*beta*80n) / (1)))) \
         scb=(1/(((2*gamma*beta*80n) / (1))*2.0u))*(2.0u/10*(150n)*exp(-10*(150n)/2.0u)+((2.0u*2.0u)/100)*exp(-10*(150n)/2.0u)-(2.0u/10)*((150n)+((2*gamma*beta*80n) / (1)))*exp(-10*((150n)+((2*gamma*beta*80n) / (1)))/2.0u)-(2.0u*2.0u)/100*exp(-10*((150n)+((2*gamma*beta*80n) / (1)))/2.0u)) \
         scc=(1/(((2*gamma*beta*80n) / (1))*2.0u))*(2.0u/20*(150n)*exp(-20*(150n)/2.0u)+((2.0u*2.0u)/400)*exp(-20*(150n)/2.0u)-(2.0u/20)*((150n)+((2*gamma*beta*80n) / (1)))*exp(-20*((150n)+((2*gamma*beta*80n) / (1)))/2.0u)-(2.0u*2.0u)/400*exp(-20*((150n)+((2*gamma*beta*80n) / (1)))/2.0u)) \
         m=1 mf=1