// Generated for: spectre
// Generated on: Dec 22 12:39:07 2022
// Design library name: project_4x
// Design cell name: RowDecoder_256_4xP_TB
// Design view name: schematic
simulator lang=spectre
global 0 vdd!
parameters post_inv_gamma=18 post_nand_gamma=8 pre_inv1_gamma=4 \
    pre_inv2_gamma=42 pre_nand1_gamma=1 pre_nand2_gamma=12
include "/dkits/umc/65nm/lms65ll/pdk_b09pb/umc65ll/../Models/Spectre/l65ll_v151.lib.scs" section=tt_ll_rvt12
include "/dkits/umc/65nm/lms65ll/pdk_b09pb/umc65ll/../Models/Spectre/l65ll_v151.lib.scs" section=tt_ll_hvt12
include "/dkits/umc/65nm/lms65ll/pdk_b09pb/umc65ll/../Models/Spectre/l65ll_v151.lib.scs" section=tt_ll_lvt12
include "/dkits/umc/65nm/lms65ll/pdk_b09pb/umc65ll/../Models/Spectre/l65ll_v151.lib.scs" section=tt_ll_io18
include "/dkits/umc/65nm/lms65ll/pdk_b09pb/umc65ll/../Models/Spectre/l65ll_v151.lib.scs" section=tt_ll_io25od33
include "/dkits/umc/65nm/lms65ll/pdk_b09pb/umc65ll/../Models/Spectre/l65ll_v151.lib.scs" section=tt_ll_io33
include "/dkits/umc/65nm/lms65ll/pdk_b09pb/umc65ll/../Models/Spectre/l65ll_v151.lib.scs" section=tt_ll_nvt12
include "/dkits/umc/65nm/lms65ll/pdk_b09pb/umc65ll/../Models/Spectre/l65ll_v151.lib.scs" section=tt_ll_nvt12_bpw
include "/dkits/umc/65nm/lms65ll/pdk_b09pb/umc65ll/../Models/Spectre/l65ll_v151.lib.scs" section=tt_ll_nvt18
include "/dkits/umc/65nm/lms65ll/pdk_b09pb/umc65ll/../Models/Spectre/l65ll_v151.lib.scs" section=tt_ll_nvt18_bpw
include "/dkits/umc/65nm/lms65ll/pdk_b09pb/umc65ll/../Models/Spectre/l65ll_v151.lib.scs" section=tt_ll_nvt25od33
include "/dkits/umc/65nm/lms65ll/pdk_b09pb/umc65ll/../Models/Spectre/l65ll_v151.lib.scs" section=tt_ll_nvt25od33_bpw
include "/dkits/umc/65nm/lms65ll/pdk_b09pb/umc65ll/../Models/Spectre/l65ll_v151.lib.scs" section=tt_ll_nvt33
include "/dkits/umc/65nm/lms65ll/pdk_b09pb/umc65ll/../Models/Spectre/l65ll_v151.lib.scs" section=tt_ll_nvt33_bpw
include "/dkits/umc/65nm/lms65ll/pdk_b09pb/umc65ll/../Models/Spectre/l65ll_v151.lib.scs" section=tt_ll_bjt
include "/dkits/umc/65nm/lms65ll/pdk_b09pb/umc65ll/../Models/Spectre/l65ll_v151.lib.scs" section=tt_ll_diode
include "/dkits/umc/65nm/lms65ll/pdk_b09pb/umc65ll/../Models/Spectre/l65ll_v151.lib.scs" section=tt_65_momcaps
include "/dkits/umc/65nm/lms65ll/pdk_b09pb/umc65ll/../Models/Spectre/l65ll_v151.lib.scs" section=tt_ll_ncap12
include "/dkits/umc/65nm/lms65ll/pdk_b09pb/umc65ll/../Models/Spectre/l65ll_v151.lib.scs" section=tt_ll_ncap18
include "/dkits/umc/65nm/lms65ll/pdk_b09pb/umc65ll/../Models/Spectre/l65ll_v151.lib.scs" section=tt_ll_ncap25
include "/dkits/umc/65nm/lms65ll/pdk_b09pb/umc65ll/../Models/Spectre/l65ll_v151.lib.scs" section=tt_ll_ncap33
include "/dkits/umc/65nm/lms65ll/pdk_b09pb/umc65ll/../Models/Spectre/l65ll_v151.lib.scs" section=tt_ll_pcap12
include "/dkits/umc/65nm/lms65ll/pdk_b09pb/umc65ll/../Models/Spectre/l65ll_v151.lib.scs" section=tt_ll_pcap18
include "/dkits/umc/65nm/lms65ll/pdk_b09pb/umc65ll/../Models/Spectre/l65ll_v151.lib.scs" section=tt_ll_pcap25
include "/dkits/umc/65nm/lms65ll/pdk_b09pb/umc65ll/../Models/Spectre/l65ll_v151.lib.scs" section=tt_ll_pcap33
include "/dkits/umc/65nm/lms65ll/pdk_b09pb/umc65ll/../Models/Spectre/l65ll_v151.lib.scs" section=tt_ll_res
include "/dkits/umc/65nm/lms65ll/pdk_b09pb/umc65ll/../Models/Spectre/L65LL_RVT12_V101_RF.lib.scs" section=tt
include "/dkits/umc/65nm/lms65ll/pdk_b09pb/umc65ll/../Models/Spectre/L65LL_HVT12_V101_RF.lib.scs" section=tt
include "/dkits/umc/65nm/lms65ll/pdk_b09pb/umc65ll/../Models/Spectre/L65LL_LVT12_V101_RF.lib.scs" section=tt
include "/dkits/umc/65nm/lms65ll/pdk_b09pb/umc65ll/../Models/Spectre/L65LL_IO18_V101_RF.lib.scs" section=tt
include "/dkits/umc/65nm/lms65ll/pdk_b09pb/umc65ll/../Models/Spectre/L65LL_IO25_V101_RF.lib.scs" section=tt
include "/dkits/umc/65nm/lms65ll/pdk_b09pb/umc65ll/../Models/Spectre/L65LL_IO33_V111_RF.lib.scs" section=tt
include "/dkits/umc/65nm/lms65ll/pdk_b09pb/umc65ll/../Models/Spectre/L65LL_VARMIS12_V111_RF.lib.scs" section=typ
include "/dkits/umc/65nm/lms65ll/pdk_b09pb/umc65ll/../Models/Spectre/L65LL_VARMIS18_V111_RF.lib.scs" section=typ
include "/dkits/umc/65nm/lms65ll/pdk_b09pb/umc65ll/../Models/Spectre/L65LL_VARMIS25_V121_RF.lib.scs" section=typ
include "/dkits/umc/65nm/lms65ll/pdk_b09pb/umc65ll/../Models/Spectre/L65LL_VARMIS33_V111_RF.lib.scs" section=typ
include "/dkits/umc/65nm/lms65ll/pdk_b09pb/umc65ll/../Models/Spectre/L65LL_VARDIOP_V101_RF.lib.scs" section=typ
include "/dkits/umc/65nm/lms65ll/pdk_b09pb/umc65ll/../Models/Spectre/momcaps_array_vp3_rfvcl_V101.lib.scs" section=typ
include "/dkits/umc/65nm/lms65ll/pdk_b09pb/umc65ll/../Models/Spectre/momcaps_array_vp4_rfvcl_V101.lib.scs" section=typ
include "/dkits/umc/65nm/lms65ll/pdk_b09pb/umc65ll/../Models/Spectre/momcaps_array_vp5_rfvcl_V101.lib.scs" section=typ
include "/dkits/umc/65nm/lms65ll/pdk_b09pb/umc65ll/../Models/Spectre/L65_MIMCAPS_20F_KF_V101_RF.lib.scs" section=tt
include "/dkits/umc/65nm/lms65ll/pdk_b09pb/umc65ll/../Models/Spectre/L65LL_RNPPO_V101_RF.lib.scs" section=typ
include "/dkits/umc/65nm/lms65ll/pdk_b09pb/umc65ll/../Models/Spectre/L65LL_RNNPO_V101_RF.lib.scs" section=typ
include "/dkits/umc/65nm/lms65ll/pdk_b09pb/umc65ll/../Models/Spectre/L65LL_RNHR_V101_RF.lib.scs" section=typ
include "/dkits/umc/65nm/lms65ll/pdk_b09pb/umc65ll/../Models/Spectre/L65_pad_rf_V101.lib.scs" section=typ

// Library name: project_common
// Cell name: INV
// View name: schematic
subckt INV A Z
parameters gamma=1 beta=2
    NM0 (Z A 0 0) n_12_llrvt l=60n w=gamma*80n sa=(((gamma*80n) / (1)) < 119.5n) ? 0.175u > ((90n) + 30n) ? 0.175u : ((90n) + 30n) : 140n > ((90n) + (15n + 55n)) ? 140n : ((90n) + (15n + 55n)) \
         sb=(((gamma*80n) / (1)) < 119.5n) ? 0.175u > ((90n) + 30n) ? 0.175u : ((90n) + 30n) : 140n > ((90n) + (15n + 55n)) ? 140n : ((90n) + (15n + 55n)) \
         nf=1 mis_flag=1 sd=(1) == 1 ? 0 : (((gamma*80n) / (1)) < 119.5n) ? 0.23u > ((90n) + 30n) ? 0.23u : ((90n) + 30n) : 130n > ((90n) + 110n) ? 130n : ((90n) + 110n) \
         as=((((((gamma*80n) / (1)) < 119.5n) ? 0.175u > ((90n) + 30n) ? 0.175u : ((90n) + 30n) : 140n > ((90n) + (15n + 55n)) ? 140n : ((90n) + (15n + 55n)))) * (gamma*80n) / (1)) + (((1) == 1 ? 0 : (((gamma*80n) / (1)) < 119.5n) ? 0.23u > ((90n) + 30n) ? 0.23u : ((90n) + 30n) : 130n > ((90n) + 110n) ? 130n : ((90n) + 110n)) * (gamma*80n) / (1) * 0) \
         ad=((((((gamma*80n) / (1)) < 119.5n) ? 0.175u > ((90n) + 30n) ? 0.175u : ((90n) + 30n) : 140n > ((90n) + (15n + 55n)) ? 140n : ((90n) + (15n + 55n)))) * (gamma*80n) / (1)) + (((1) == 1 ? 0 : (((gamma*80n) / (1)) < 119.5n) ? 0.23u > ((90n) + 30n) ? 0.23u : ((90n) + 30n) : 130n > ((90n) + 110n) ? 130n : ((90n) + 110n)) * (gamma*80n) / (1) * 0) \
         ps=((((((gamma*80n) / (1)) < 119.5n) ? 0.175u > ((90n) + 30n) ? 0.175u : ((90n) + 30n) : 140n > ((90n) + (15n + 55n)) ? 140n : ((90n) + (15n + 55n)))*2) + ((gamma*80n) / (1)*2)) + ((((1) == 1 ? 0 : (((gamma*80n) / (1)) < 119.5n) ? 0.23u > ((90n) + 30n) ? 0.23u : ((90n) + 30n) : 130n > ((90n) + 110n) ? 130n : ((90n) + 110n))*2) + ((gamma*80n) / (1)*2))*0 \
         pd=((((((gamma*80n) / (1)) < 119.5n) ? 0.175u > ((90n) + 30n) ? 0.175u : ((90n) + 30n) : 140n > ((90n) + (15n + 55n)) ? 140n : ((90n) + (15n + 55n)))*2) + ((gamma*80n) / (1)*2)) + ((((1) == 1 ? 0 : (((gamma*80n) / (1)) < 119.5n) ? 0.23u > ((90n) + 30n) ? 0.23u : ((90n) + 30n) : 130n > ((90n) + 110n) ? 130n : ((90n) + 110n))*2) + ((gamma*80n) / (1)*2))*0 \
         sca=((2.0u*2.0u)/((gamma*80n) / (1)))*(1/(150n)-1/((150n)+((gamma*80n) / (1)))) \
         scb=(1/(((gamma*80n) / (1))*2.0u))*(2.0u/10*(150n)*exp(-10*(150n)/2.0u)+((2.0u*2.0u)/100)*exp(-10*(150n)/2.0u)-(2.0u/10)*((150n)+((gamma*80n) / (1)))*exp(-10*((150n)+((gamma*80n) / (1)))/2.0u)-(2.0u*2.0u)/100*exp(-10*((150n)+((gamma*80n) / (1)))/2.0u)) \
         scc=(1/(((gamma*80n) / (1))*2.0u))*(2.0u/20*(150n)*exp(-20*(150n)/2.0u)+((2.0u*2.0u)/400)*exp(-20*(150n)/2.0u)-(2.0u/20)*((150n)+((gamma*80n) / (1)))*exp(-20*((150n)+((gamma*80n) / (1)))/2.0u)-(2.0u*2.0u)/400*exp(-20*((150n)+((gamma*80n) / (1)))/2.0u)) \
         m=1 mf=1
    PM0 (Z A vdd! vdd!) p_12_llrvt l=60n w=gamma*beta*80n sa=(((gamma*beta*80n) / (1)) < 119.5n) ? 0.175u > ((90n) + 30n) ? 0.175u : ((90n) + 30n) : 140n > ((90n) + (15n + 55n)) ? 140n : ((90n) + (15n + 55n)) \
         sb=(((gamma*beta*80n) / (1)) < 119.5n) ? 0.175u > ((90n) + 30n) ? 0.175u : ((90n) + 30n) : 140n > ((90n) + (15n + 55n)) ? 140n : ((90n) + (15n + 55n)) \
         nf=1 mis_flag=1 sd=(1) == 1 ? 0 : (((gamma*beta*80n) / (1)) < 119.5n) ? 0.23u > ((90n) + 30n) ? 0.23u : ((90n) + 30n) : 130n > ((90n) + 110n) ? 130n : ((90n) + 110n) \
         as=((((((gamma*beta*80n) / (1)) < 119.5n) ? 0.175u > ((90n) + 30n) ? 0.175u : ((90n) + 30n) : 140n > ((90n) + (15n + 55n)) ? 140n : ((90n) + (15n + 55n)))) * (gamma*beta*80n) / (1)) + (((1) == 1 ? 0 : (((gamma*beta*80n) / (1)) < 119.5n) ? 0.23u > ((90n) + 30n) ? 0.23u : ((90n) + 30n) : 130n > ((90n) + 110n) ? 130n : ((90n) + 110n)) * (gamma*beta*80n) / (1) * 0) \
         ad=((((((gamma*beta*80n) / (1)) < 119.5n) ? 0.175u > ((90n) + 30n) ? 0.175u : ((90n) + 30n) : 140n > ((90n) + (15n + 55n)) ? 140n : ((90n) + (15n + 55n)))) * (gamma*beta*80n) / (1)) + (((1) == 1 ? 0 : (((gamma*beta*80n) / (1)) < 119.5n) ? 0.23u > ((90n) + 30n) ? 0.23u : ((90n) + 30n) : 130n > ((90n) + 110n) ? 130n : ((90n) + 110n)) * (gamma*beta*80n) / (1) * 0) \
         ps=((((((gamma*beta*80n) / (1)) < 119.5n) ? 0.175u > ((90n) + 30n) ? 0.175u : ((90n) + 30n) : 140n > ((90n) + (15n + 55n)) ? 140n : ((90n) + (15n + 55n)))*2) + ((gamma*beta*80n) / (1)*2)) + ((((1) == 1 ? 0 : (((gamma*beta*80n) / (1)) < 119.5n) ? 0.23u > ((90n) + 30n) ? 0.23u : ((90n) + 30n) : 130n > ((90n) + 110n) ? 130n : ((90n) + 110n))*2) + ((gamma*beta*80n) / (1)*2))*0 \
         pd=((((((gamma*beta*80n) / (1)) < 119.5n) ? 0.175u > ((90n) + 30n) ? 0.175u : ((90n) + 30n) : 140n > ((90n) + (15n + 55n)) ? 140n : ((90n) + (15n + 55n)))*2) + ((gamma*beta*80n) / (1)*2)) + ((((1) == 1 ? 0 : (((gamma*beta*80n) / (1)) < 119.5n) ? 0.23u > ((90n) + 30n) ? 0.23u : ((90n) + 30n) : 130n > ((90n) + 110n) ? 130n : ((90n) + 110n))*2) + ((gamma*beta*80n) / (1)*2))*0 \
         sca=((2.0u*2.0u)/((gamma*beta*80n) / (1)))*(1/(150n)-1/((150n)+((gamma*beta*80n) / (1)))) \
         scb=(1/(((gamma*beta*80n) / (1))*2.0u))*(2.0u/10*(150n)*exp(-10*(150n)/2.0u)+((2.0u*2.0u)/100)*exp(-10*(150n)/2.0u)-(2.0u/10)*((150n)+((gamma*beta*80n) / (1)))*exp(-10*((150n)+((gamma*beta*80n) / (1)))/2.0u)-(2.0u*2.0u)/100*exp(-10*((150n)+((gamma*beta*80n) / (1)))/2.0u)) \
         scc=(1/(((gamma*beta*80n) / (1))*2.0u))*(2.0u/20*(150n)*exp(-20*(150n)/2.0u)+((2.0u*2.0u)/400)*exp(-20*(150n)/2.0u)-(2.0u/20)*((150n)+((gamma*beta*80n) / (1)))*exp(-20*((150n)+((gamma*beta*80n) / (1)))/2.0u)-(2.0u*2.0u)/400*exp(-20*((150n)+((gamma*beta*80n) / (1)))/2.0u)) \
         m=1 mf=1
ends INV
// End of subcircuit definition.

// Library name: project_common
// Cell name: NAND2
// View name: schematic
subckt NAND2 A B Z
parameters gamma=2 beta=1
    PM1 (Z B vdd! vdd!) p_12_llrvt l=60n w=gamma*beta*80n sa=(((gamma*beta*80n) / (1)) < 119.5n) ? 0.175u > ((90n) + 30n) ? 0.175u : ((90n) + 30n) : 140n > ((90n) + (15n + 55n)) ? 140n : ((90n) + (15n + 55n)) \
         sb=(((gamma*beta*80n) / (1)) < 119.5n) ? 0.175u > ((90n) + 30n) ? 0.175u : ((90n) + 30n) : 140n > ((90n) + (15n + 55n)) ? 140n : ((90n) + (15n + 55n)) \
         nf=1 mis_flag=1 sd=(1) == 1 ? 0 : (((gamma*beta*80n) / (1)) < 119.5n) ? 0.23u > ((90n) + 30n) ? 0.23u : ((90n) + 30n) : 130n > ((90n) + 110n) ? 130n : ((90n) + 110n) \
         as=((((((gamma*beta*80n) / (1)) < 119.5n) ? 0.175u > ((90n) + 30n) ? 0.175u : ((90n) + 30n) : 140n > ((90n) + (15n + 55n)) ? 140n : ((90n) + (15n + 55n)))) * (gamma*beta*80n) / (1)) + (((1) == 1 ? 0 : (((gamma*beta*80n) / (1)) < 119.5n) ? 0.23u > ((90n) + 30n) ? 0.23u : ((90n) + 30n) : 130n > ((90n) + 110n) ? 130n : ((90n) + 110n)) * (gamma*beta*80n) / (1) * 0) \
         ad=((((((gamma*beta*80n) / (1)) < 119.5n) ? 0.175u > ((90n) + 30n) ? 0.175u : ((90n) + 30n) : 140n > ((90n) + (15n + 55n)) ? 140n : ((90n) + (15n + 55n)))) * (gamma*beta*80n) / (1)) + (((1) == 1 ? 0 : (((gamma*beta*80n) / (1)) < 119.5n) ? 0.23u > ((90n) + 30n) ? 0.23u : ((90n) + 30n) : 130n > ((90n) + 110n) ? 130n : ((90n) + 110n)) * (gamma*beta*80n) / (1) * 0) \
         ps=((((((gamma*beta*80n) / (1)) < 119.5n) ? 0.175u > ((90n) + 30n) ? 0.175u : ((90n) + 30n) : 140n > ((90n) + (15n + 55n)) ? 140n : ((90n) + (15n + 55n)))*2) + ((gamma*beta*80n) / (1)*2)) + ((((1) == 1 ? 0 : (((gamma*beta*80n) / (1)) < 119.5n) ? 0.23u > ((90n) + 30n) ? 0.23u : ((90n) + 30n) : 130n > ((90n) + 110n) ? 130n : ((90n) + 110n))*2) + ((gamma*beta*80n) / (1)*2))*0 \
         pd=((((((gamma*beta*80n) / (1)) < 119.5n) ? 0.175u > ((90n) + 30n) ? 0.175u : ((90n) + 30n) : 140n > ((90n) + (15n + 55n)) ? 140n : ((90n) + (15n + 55n)))*2) + ((gamma*beta*80n) / (1)*2)) + ((((1) == 1 ? 0 : (((gamma*beta*80n) / (1)) < 119.5n) ? 0.23u > ((90n) + 30n) ? 0.23u : ((90n) + 30n) : 130n > ((90n) + 110n) ? 130n : ((90n) + 110n))*2) + ((gamma*beta*80n) / (1)*2))*0 \
         sca=((2.0u*2.0u)/((gamma*beta*80n) / (1)))*(1/(150n)-1/((150n)+((gamma*beta*80n) / (1)))) \
         scb=(1/(((gamma*beta*80n) / (1))*2.0u))*(2.0u/10*(150n)*exp(-10*(150n)/2.0u)+((2.0u*2.0u)/100)*exp(-10*(150n)/2.0u)-(2.0u/10)*((150n)+((gamma*beta*80n) / (1)))*exp(-10*((150n)+((gamma*beta*80n) / (1)))/2.0u)-(2.0u*2.0u)/100*exp(-10*((150n)+((gamma*beta*80n) / (1)))/2.0u)) \
         scc=(1/(((gamma*beta*80n) / (1))*2.0u))*(2.0u/20*(150n)*exp(-20*(150n)/2.0u)+((2.0u*2.0u)/400)*exp(-20*(150n)/2.0u)-(2.0u/20)*((150n)+((gamma*beta*80n) / (1)))*exp(-20*((150n)+((gamma*beta*80n) / (1)))/2.0u)-(2.0u*2.0u)/400*exp(-20*((150n)+((gamma*beta*80n) / (1)))/2.0u)) \
         m=1 mf=1
    PM0 (Z A vdd! vdd!) p_12_llrvt l=60n w=gamma*beta*80n sa=(((gamma*beta*80n) / (1)) < 119.5n) ? 0.175u > ((90n) + 30n) ? 0.175u : ((90n) + 30n) : 140n > ((90n) + (15n + 55n)) ? 140n : ((90n) + (15n + 55n)) \
         sb=(((gamma*beta*80n) / (1)) < 119.5n) ? 0.175u > ((90n) + 30n) ? 0.175u : ((90n) + 30n) : 140n > ((90n) + (15n + 55n)) ? 140n : ((90n) + (15n + 55n)) \
         nf=1 mis_flag=1 sd=(1) == 1 ? 0 : (((gamma*beta*80n) / (1)) < 119.5n) ? 0.23u > ((90n) + 30n) ? 0.23u : ((90n) + 30n) : 130n > ((90n) + 110n) ? 130n : ((90n) + 110n) \
         as=((((((gamma*beta*80n) / (1)) < 119.5n) ? 0.175u > ((90n) + 30n) ? 0.175u : ((90n) + 30n) : 140n > ((90n) + (15n + 55n)) ? 140n : ((90n) + (15n + 55n)))) * (gamma*beta*80n) / (1)) + (((1) == 1 ? 0 : (((gamma*beta*80n) / (1)) < 119.5n) ? 0.23u > ((90n) + 30n) ? 0.23u : ((90n) + 30n) : 130n > ((90n) + 110n) ? 130n : ((90n) + 110n)) * (gamma*beta*80n) / (1) * 0) \
         ad=((((((gamma*beta*80n) / (1)) < 119.5n) ? 0.175u > ((90n) + 30n) ? 0.175u : ((90n) + 30n) : 140n > ((90n) + (15n + 55n)) ? 140n : ((90n) + (15n + 55n)))) * (gamma*beta*80n) / (1)) + (((1) == 1 ? 0 : (((gamma*beta*80n) / (1)) < 119.5n) ? 0.23u > ((90n) + 30n) ? 0.23u : ((90n) + 30n) : 130n > ((90n) + 110n) ? 130n : ((90n) + 110n)) * (gamma*beta*80n) / (1) * 0) \
         ps=((((((gamma*beta*80n) / (1)) < 119.5n) ? 0.175u > ((90n) + 30n) ? 0.175u : ((90n) + 30n) : 140n > ((90n) + (15n + 55n)) ? 140n : ((90n) + (15n + 55n)))*2) + ((gamma*beta*80n) / (1)*2)) + ((((1) == 1 ? 0 : (((gamma*beta*80n) / (1)) < 119.5n) ? 0.23u > ((90n) + 30n) ? 0.23u : ((90n) + 30n) : 130n > ((90n) + 110n) ? 130n : ((90n) + 110n))*2) + ((gamma*beta*80n) / (1)*2))*0 \
         pd=((((((gamma*beta*80n) / (1)) < 119.5n) ? 0.175u > ((90n) + 30n) ? 0.175u : ((90n) + 30n) : 140n > ((90n) + (15n + 55n)) ? 140n : ((90n) + (15n + 55n)))*2) + ((gamma*beta*80n) / (1)*2)) + ((((1) == 1 ? 0 : (((gamma*beta*80n) / (1)) < 119.5n) ? 0.23u > ((90n) + 30n) ? 0.23u : ((90n) + 30n) : 130n > ((90n) + 110n) ? 130n : ((90n) + 110n))*2) + ((gamma*beta*80n) / (1)*2))*0 \
         sca=((2.0u*2.0u)/((gamma*beta*80n) / (1)))*(1/(150n)-1/((150n)+((gamma*beta*80n) / (1)))) \
         scb=(1/(((gamma*beta*80n) / (1))*2.0u))*(2.0u/10*(150n)*exp(-10*(150n)/2.0u)+((2.0u*2.0u)/100)*exp(-10*(150n)/2.0u)-(2.0u/10)*((150n)+((gamma*beta*80n) / (1)))*exp(-10*((150n)+((gamma*beta*80n) / (1)))/2.0u)-(2.0u*2.0u)/100*exp(-10*((150n)+((gamma*beta*80n) / (1)))/2.0u)) \
         scc=(1/(((gamma*beta*80n) / (1))*2.0u))*(2.0u/20*(150n)*exp(-20*(150n)/2.0u)+((2.0u*2.0u)/400)*exp(-20*(150n)/2.0u)-(2.0u/20)*((150n)+((gamma*beta*80n) / (1)))*exp(-20*((150n)+((gamma*beta*80n) / (1)))/2.0u)-(2.0u*2.0u)/400*exp(-20*((150n)+((gamma*beta*80n) / (1)))/2.0u)) \
         m=1 mf=1
    NM1 (net12 B 0 0) n_12_llrvt l=60n w=2*gamma*80n sa=(((2*gamma*80n) / (1)) < 119.5n) ? 0.175u > ((90n) + 30n) ? 0.175u : ((90n) + 30n) : 140n > ((90n) + (15n + 55n)) ? 140n : ((90n) + (15n + 55n)) \
         sb=(((2*gamma*80n) / (1)) < 119.5n) ? 0.175u > ((90n) + 30n) ? 0.175u : ((90n) + 30n) : 140n > ((90n) + (15n + 55n)) ? 140n : ((90n) + (15n + 55n)) \
         nf=1 mis_flag=1 sd=(1) == 1 ? 0 : (((2*gamma*80n) / (1)) < 119.5n) ? 0.23u > ((90n) + 30n) ? 0.23u : ((90n) + 30n) : 130n > ((90n) + 110n) ? 130n : ((90n) + 110n) \
         as=((((((2*gamma*80n) / (1)) < 119.5n) ? 0.175u > ((90n) + 30n) ? 0.175u : ((90n) + 30n) : 140n > ((90n) + (15n + 55n)) ? 140n : ((90n) + (15n + 55n)))) * (2*gamma*80n) / (1)) + (((1) == 1 ? 0 : (((2*gamma*80n) / (1)) < 119.5n) ? 0.23u > ((90n) + 30n) ? 0.23u : ((90n) + 30n) : 130n > ((90n) + 110n) ? 130n : ((90n) + 110n)) * (2*gamma*80n) / (1) * 0) \
         ad=((((((2*gamma*80n) / (1)) < 119.5n) ? 0.175u > ((90n) + 30n) ? 0.175u : ((90n) + 30n) : 140n > ((90n) + (15n + 55n)) ? 140n : ((90n) + (15n + 55n)))) * (2*gamma*80n) / (1)) + (((1) == 1 ? 0 : (((2*gamma*80n) / (1)) < 119.5n) ? 0.23u > ((90n) + 30n) ? 0.23u : ((90n) + 30n) : 130n > ((90n) + 110n) ? 130n : ((90n) + 110n)) * (2*gamma*80n) / (1) * 0) \
         ps=((((((2*gamma*80n) / (1)) < 119.5n) ? 0.175u > ((90n) + 30n) ? 0.175u : ((90n) + 30n) : 140n > ((90n) + (15n + 55n)) ? 140n : ((90n) + (15n + 55n)))*2) + ((2*gamma*80n) / (1)*2)) + ((((1) == 1 ? 0 : (((2*gamma*80n) / (1)) < 119.5n) ? 0.23u > ((90n) + 30n) ? 0.23u : ((90n) + 30n) : 130n > ((90n) + 110n) ? 130n : ((90n) + 110n))*2) + ((2*gamma*80n) / (1)*2))*0 \
         pd=((((((2*gamma*80n) / (1)) < 119.5n) ? 0.175u > ((90n) + 30n) ? 0.175u : ((90n) + 30n) : 140n > ((90n) + (15n + 55n)) ? 140n : ((90n) + (15n + 55n)))*2) + ((2*gamma*80n) / (1)*2)) + ((((1) == 1 ? 0 : (((2*gamma*80n) / (1)) < 119.5n) ? 0.23u > ((90n) + 30n) ? 0.23u : ((90n) + 30n) : 130n > ((90n) + 110n) ? 130n : ((90n) + 110n))*2) + ((2*gamma*80n) / (1)*2))*0 \
         sca=((2.0u*2.0u)/((2*gamma*80n) / (1)))*(1/(150n)-1/((150n)+((2*gamma*80n) / (1)))) \
         scb=(1/(((2*gamma*80n) / (1))*2.0u))*(2.0u/10*(150n)*exp(-10*(150n)/2.0u)+((2.0u*2.0u)/100)*exp(-10*(150n)/2.0u)-(2.0u/10)*((150n)+((2*gamma*80n) / (1)))*exp(-10*((150n)+((2*gamma*80n) / (1)))/2.0u)-(2.0u*2.0u)/100*exp(-10*((150n)+((2*gamma*80n) / (1)))/2.0u)) \
         scc=(1/(((2*gamma*80n) / (1))*2.0u))*(2.0u/20*(150n)*exp(-20*(150n)/2.0u)+((2.0u*2.0u)/400)*exp(-20*(150n)/2.0u)-(2.0u/20)*((150n)+((2*gamma*80n) / (1)))*exp(-20*((150n)+((2*gamma*80n) / (1)))/2.0u)-(2.0u*2.0u)/400*exp(-20*((150n)+((2*gamma*80n) / (1)))/2.0u)) \
         m=1 mf=1
    NM0 (Z A net12 0) n_12_llrvt l=60n w=2*gamma*80n sa=(((2*gamma*80n) / (1)) < 119.5n) ? 0.175u > ((90n) + 30n) ? 0.175u : ((90n) + 30n) : 140n > ((90n) + (15n + 55n)) ? 140n : ((90n) + (15n + 55n)) \
         sb=(((2*gamma*80n) / (1)) < 119.5n) ? 0.175u > ((90n) + 30n) ? 0.175u : ((90n) + 30n) : 140n > ((90n) + (15n + 55n)) ? 140n : ((90n) + (15n + 55n)) \
         nf=1 mis_flag=1 sd=(1) == 1 ? 0 : (((2*gamma*80n) / (1)) < 119.5n) ? 0.23u > ((90n) + 30n) ? 0.23u : ((90n) + 30n) : 130n > ((90n) + 110n) ? 130n : ((90n) + 110n) \
         as=((((((2*gamma*80n) / (1)) < 119.5n) ? 0.175u > ((90n) + 30n) ? 0.175u : ((90n) + 30n) : 140n > ((90n) + (15n + 55n)) ? 140n : ((90n) + (15n + 55n)))) * (2*gamma*80n) / (1)) + (((1) == 1 ? 0 : (((2*gamma*80n) / (1)) < 119.5n) ? 0.23u > ((90n) + 30n) ? 0.23u : ((90n) + 30n) : 130n > ((90n) + 110n) ? 130n : ((90n) + 110n)) * (2*gamma*80n) / (1) * 0) \
         ad=((((((2*gamma*80n) / (1)) < 119.5n) ? 0.175u > ((90n) + 30n) ? 0.175u : ((90n) + 30n) : 140n > ((90n) + (15n + 55n)) ? 140n : ((90n) + (15n + 55n)))) * (2*gamma*80n) / (1)) + (((1) == 1 ? 0 : (((2*gamma*80n) / (1)) < 119.5n) ? 0.23u > ((90n) + 30n) ? 0.23u : ((90n) + 30n) : 130n > ((90n) + 110n) ? 130n : ((90n) + 110n)) * (2*gamma*80n) / (1) * 0) \
         ps=((((((2*gamma*80n) / (1)) < 119.5n) ? 0.175u > ((90n) + 30n) ? 0.175u : ((90n) + 30n) : 140n > ((90n) + (15n + 55n)) ? 140n : ((90n) + (15n + 55n)))*2) + ((2*gamma*80n) / (1)*2)) + ((((1) == 1 ? 0 : (((2*gamma*80n) / (1)) < 119.5n) ? 0.23u > ((90n) + 30n) ? 0.23u : ((90n) + 30n) : 130n > ((90n) + 110n) ? 130n : ((90n) + 110n))*2) + ((2*gamma*80n) / (1)*2))*0 \
         pd=((((((2*gamma*80n) / (1)) < 119.5n) ? 0.175u > ((90n) + 30n) ? 0.175u : ((90n) + 30n) : 140n > ((90n) + (15n + 55n)) ? 140n : ((90n) + (15n + 55n)))*2) + ((2*gamma*80n) / (1)*2)) + ((((1) == 1 ? 0 : (((2*gamma*80n) / (1)) < 119.5n) ? 0.23u > ((90n) + 30n) ? 0.23u : ((90n) + 30n) : 130n > ((90n) + 110n) ? 130n : ((90n) + 110n))*2) + ((2*gamma*80n) / (1)*2))*0 \
         sca=((2.0u*2.0u)/((2*gamma*80n) / (1)))*(1/(150n)-1/((150n)+((2*gamma*80n) / (1)))) \
         scb=(1/(((2*gamma*80n) / (1))*2.0u))*(2.0u/10*(150n)*exp(-10*(150n)/2.0u)+((2.0u*2.0u)/100)*exp(-10*(150n)/2.0u)-(2.0u/10)*((150n)+((2*gamma*80n) / (1)))*exp(-10*((150n)+((2*gamma*80n) / (1)))/2.0u)-(2.0u*2.0u)/100*exp(-10*((150n)+((2*gamma*80n) / (1)))/2.0u)) \
         scc=(1/(((2*gamma*80n) / (1))*2.0u))*(2.0u/20*(150n)*exp(-20*(150n)/2.0u)+((2.0u*2.0u)/400)*exp(-20*(150n)/2.0u)-(2.0u/20)*((150n)+((2*gamma*80n) / (1)))*exp(-20*((150n)+((2*gamma*80n) / (1)))/2.0u)-(2.0u*2.0u)/400*exp(-20*((150n)+((2*gamma*80n) / (1)))/2.0u)) \
         m=1 mf=1
ends NAND2
// End of subcircuit definition.

// Library name: project_4x
// Cell name: Post
// View name: schematic
subckt Post A\<1\> A\<0\> WL
    I1 (net7 WL) INV gamma=post_inv_gamma beta=2
    I0 (A\<0\> A\<1\> net7) NAND2 gamma=post_nand_gamma beta=2
ends Post
// End of subcircuit definition.

// Library name: project_common
// Cell name: BitCellLoad_L
// View name: schematic
subckt BitCellLoad_L WL gnd vdd
    NM0 (vdd WL gnd gnd) n_12_llrvt l=60n w=80n sa=175n sb=175n nf=1 \
        mis_flag=1 sd=0 as=24.8f ad=24.8f ps=690n pd=690n sca=115.942 \
        scb=36.4681m scc=14.1857m m=1 mf=1
    NM1 (gnd WL gnd gnd) n_12_llrvt l=60n w=80n sa=175n sb=175n nf=1 \
        mis_flag=1 sd=0 as=24.8f ad=24.8f ps=690n pd=690n sca=115.942 \
        scb=36.4681m scc=14.1857m m=1 mf=1
ends BitCellLoad_L
// End of subcircuit definition.

// Library name: project_common
// Cell name: BitCellRow
// View name: schematic
subckt BitCellRow WL
parameters Rwire Cwire
    R0 (WL net3) resistor r=Rwire
    Cwire (net3 0) capacitor c=Cwire
    I0\<31\> (net3 0 vdd!) BitCellLoad_L
    I0\<30\> (net3 0 vdd!) BitCellLoad_L
    I0\<29\> (net3 0 vdd!) BitCellLoad_L
    I0\<28\> (net3 0 vdd!) BitCellLoad_L
    I0\<27\> (net3 0 vdd!) BitCellLoad_L
    I0\<26\> (net3 0 vdd!) BitCellLoad_L
    I0\<25\> (net3 0 vdd!) BitCellLoad_L
    I0\<24\> (net3 0 vdd!) BitCellLoad_L
    I0\<23\> (net3 0 vdd!) BitCellLoad_L
    I0\<22\> (net3 0 vdd!) BitCellLoad_L
    I0\<21\> (net3 0 vdd!) BitCellLoad_L
    I0\<20\> (net3 0 vdd!) BitCellLoad_L
    I0\<19\> (net3 0 vdd!) BitCellLoad_L
    I0\<18\> (net3 0 vdd!) BitCellLoad_L
    I0\<17\> (net3 0 vdd!) BitCellLoad_L
    I0\<16\> (net3 0 vdd!) BitCellLoad_L
    I0\<15\> (net3 0 vdd!) BitCellLoad_L
    I0\<14\> (net3 0 vdd!) BitCellLoad_L
    I0\<13\> (net3 0 vdd!) BitCellLoad_L
    I0\<12\> (net3 0 vdd!) BitCellLoad_L
    I0\<11\> (net3 0 vdd!) BitCellLoad_L
    I0\<10\> (net3 0 vdd!) BitCellLoad_L
    I0\<9\> (net3 0 vdd!) BitCellLoad_L
    I0\<8\> (net3 0 vdd!) BitCellLoad_L
    I0\<7\> (net3 0 vdd!) BitCellLoad_L
    I0\<6\> (net3 0 vdd!) BitCellLoad_L
    I0\<5\> (net3 0 vdd!) BitCellLoad_L
    I0\<4\> (net3 0 vdd!) BitCellLoad_L
    I0\<3\> (net3 0 vdd!) BitCellLoad_L
    I0\<2\> (net3 0 vdd!) BitCellLoad_L
    I0\<1\> (net3 0 vdd!) BitCellLoad_L
    I0\<0\> (net3 0 vdd!) BitCellLoad_L
ends BitCellRow
// End of subcircuit definition.

// Library name: project_common
// Cell name: BitCellArray
// View name: schematic
subckt BitCellArray WL\<255\> WL\<254\> WL\<253\> WL\<252\> WL\<251\> \
        WL\<250\> WL\<249\> WL\<248\> WL\<247\> WL\<246\> WL\<245\> \
        WL\<244\> WL\<243\> WL\<242\> WL\<241\> WL\<240\> WL\<239\> \
        WL\<238\> WL\<237\> WL\<236\> WL\<235\> WL\<234\> WL\<233\> \
        WL\<232\> WL\<231\> WL\<230\> WL\<229\> WL\<228\> WL\<227\> \
        WL\<226\> WL\<225\> WL\<224\> WL\<223\> WL\<222\> WL\<221\> \
        WL\<220\> WL\<219\> WL\<218\> WL\<217\> WL\<216\> WL\<215\> \
        WL\<214\> WL\<213\> WL\<212\> WL\<211\> WL\<210\> WL\<209\> \
        WL\<208\> WL\<207\> WL\<206\> WL\<205\> WL\<204\> WL\<203\> \
        WL\<202\> WL\<201\> WL\<200\> WL\<199\> WL\<198\> WL\<197\> \
        WL\<196\> WL\<195\> WL\<194\> WL\<193\> WL\<192\> WL\<191\> \
        WL\<190\> WL\<189\> WL\<188\> WL\<187\> WL\<186\> WL\<185\> \
        WL\<184\> WL\<183\> WL\<182\> WL\<181\> WL\<180\> WL\<179\> \
        WL\<178\> WL\<177\> WL\<176\> WL\<175\> WL\<174\> WL\<173\> \
        WL\<172\> WL\<171\> WL\<170\> WL\<169\> WL\<168\> WL\<167\> \
        WL\<166\> WL\<165\> WL\<164\> WL\<163\> WL\<162\> WL\<161\> \
        WL\<160\> WL\<159\> WL\<158\> WL\<157\> WL\<156\> WL\<155\> \
        WL\<154\> WL\<153\> WL\<152\> WL\<151\> WL\<150\> WL\<149\> \
        WL\<148\> WL\<147\> WL\<146\> WL\<145\> WL\<144\> WL\<143\> \
        WL\<142\> WL\<141\> WL\<140\> WL\<139\> WL\<138\> WL\<137\> \
        WL\<136\> WL\<135\> WL\<134\> WL\<133\> WL\<132\> WL\<131\> \
        WL\<130\> WL\<129\> WL\<128\> WL\<127\> WL\<126\> WL\<125\> \
        WL\<124\> WL\<123\> WL\<122\> WL\<121\> WL\<120\> WL\<119\> \
        WL\<118\> WL\<117\> WL\<116\> WL\<115\> WL\<114\> WL\<113\> \
        WL\<112\> WL\<111\> WL\<110\> WL\<109\> WL\<108\> WL\<107\> \
        WL\<106\> WL\<105\> WL\<104\> WL\<103\> WL\<102\> WL\<101\> \
        WL\<100\> WL\<99\> WL\<98\> WL\<97\> WL\<96\> WL\<95\> WL\<94\> \
        WL\<93\> WL\<92\> WL\<91\> WL\<90\> WL\<89\> WL\<88\> WL\<87\> \
        WL\<86\> WL\<85\> WL\<84\> WL\<83\> WL\<82\> WL\<81\> WL\<80\> \
        WL\<79\> WL\<78\> WL\<77\> WL\<76\> WL\<75\> WL\<74\> WL\<73\> \
        WL\<72\> WL\<71\> WL\<70\> WL\<69\> WL\<68\> WL\<67\> WL\<66\> \
        WL\<65\> WL\<64\> WL\<63\> WL\<62\> WL\<61\> WL\<60\> WL\<59\> \
        WL\<58\> WL\<57\> WL\<56\> WL\<55\> WL\<54\> WL\<53\> WL\<52\> \
        WL\<51\> WL\<50\> WL\<49\> WL\<48\> WL\<47\> WL\<46\> WL\<45\> \
        WL\<44\> WL\<43\> WL\<42\> WL\<41\> WL\<40\> WL\<39\> WL\<38\> \
        WL\<37\> WL\<36\> WL\<35\> WL\<34\> WL\<33\> WL\<32\> WL\<31\> \
        WL\<30\> WL\<29\> WL\<28\> WL\<27\> WL\<26\> WL\<25\> WL\<24\> \
        WL\<23\> WL\<22\> WL\<21\> WL\<20\> WL\<19\> WL\<18\> WL\<17\> \
        WL\<16\> WL\<15\> WL\<14\> WL\<13\> WL\<12\> WL\<11\> WL\<10\> \
        WL\<9\> WL\<8\> WL\<7\> WL\<6\> WL\<5\> WL\<4\> WL\<3\> WL\<2\> \
        WL\<1\> WL\<0\>
parameters Rwire Cwire
    IRow\<0\> (WL\<0\>) BitCellRow Rwire=Rwire Cwire=Cwire
    IRow\<1\> (WL\<1\>) BitCellRow Rwire=Rwire Cwire=Cwire
    IRow\<2\> (WL\<2\>) BitCellRow Rwire=Rwire Cwire=Cwire
    IRow\<3\> (WL\<3\>) BitCellRow Rwire=Rwire Cwire=Cwire
    IRow\<4\> (WL\<4\>) BitCellRow Rwire=Rwire Cwire=Cwire
    IRow\<5\> (WL\<5\>) BitCellRow Rwire=Rwire Cwire=Cwire
    IRow\<6\> (WL\<6\>) BitCellRow Rwire=Rwire Cwire=Cwire
    IRow\<7\> (WL\<7\>) BitCellRow Rwire=Rwire Cwire=Cwire
    IRow\<8\> (WL\<8\>) BitCellRow Rwire=Rwire Cwire=Cwire
    IRow\<9\> (WL\<9\>) BitCellRow Rwire=Rwire Cwire=Cwire
    IRow\<10\> (WL\<10\>) BitCellRow Rwire=Rwire Cwire=Cwire
    IRow\<11\> (WL\<11\>) BitCellRow Rwire=Rwire Cwire=Cwire
    IRow\<12\> (WL\<12\>) BitCellRow Rwire=Rwire Cwire=Cwire
    IRow\<13\> (WL\<13\>) BitCellRow Rwire=Rwire Cwire=Cwire
    IRow\<14\> (WL\<14\>) BitCellRow Rwire=Rwire Cwire=Cwire
    IRow\<15\> (WL\<15\>) BitCellRow Rwire=Rwire Cwire=Cwire
    IRow\<16\> (WL\<16\>) BitCellRow Rwire=Rwire Cwire=Cwire
    IRow\<17\> (WL\<17\>) BitCellRow Rwire=Rwire Cwire=Cwire
    IRow\<18\> (WL\<18\>) BitCellRow Rwire=Rwire Cwire=Cwire
    IRow\<19\> (WL\<19\>) BitCellRow Rwire=Rwire Cwire=Cwire
    IRow\<20\> (WL\<20\>) BitCellRow Rwire=Rwire Cwire=Cwire
    IRow\<21\> (WL\<21\>) BitCellRow Rwire=Rwire Cwire=Cwire
    IRow\<22\> (WL\<22\>) BitCellRow Rwire=Rwire Cwire=Cwire
    IRow\<23\> (WL\<23\>) BitCellRow Rwire=Rwire Cwire=Cwire
    IRow\<24\> (WL\<24\>) BitCellRow Rwire=Rwire Cwire=Cwire
    IRow\<25\> (WL\<25\>) BitCellRow Rwire=Rwire Cwire=Cwire
    IRow\<26\> (WL\<26\>) BitCellRow Rwire=Rwire Cwire=Cwire
    IRow\<27\> (WL\<27\>) BitCellRow Rwire=Rwire Cwire=Cwire
    IRow\<28\> (WL\<28\>) BitCellRow Rwire=Rwire Cwire=Cwire
    IRow\<29\> (WL\<29\>) BitCellRow Rwire=Rwire Cwire=Cwire
    IRow\<30\> (WL\<30\>) BitCellRow Rwire=Rwire Cwire=Cwire
    IRow\<31\> (WL\<31\>) BitCellRow Rwire=Rwire Cwire=Cwire
    IRow\<32\> (WL\<32\>) BitCellRow Rwire=Rwire Cwire=Cwire
    IRow\<33\> (WL\<33\>) BitCellRow Rwire=Rwire Cwire=Cwire
    IRow\<34\> (WL\<34\>) BitCellRow Rwire=Rwire Cwire=Cwire
    IRow\<35\> (WL\<35\>) BitCellRow Rwire=Rwire Cwire=Cwire
    IRow\<36\> (WL\<36\>) BitCellRow Rwire=Rwire Cwire=Cwire
    IRow\<37\> (WL\<37\>) BitCellRow Rwire=Rwire Cwire=Cwire
    IRow\<38\> (WL\<38\>) BitCellRow Rwire=Rwire Cwire=Cwire
    IRow\<39\> (WL\<39\>) BitCellRow Rwire=Rwire Cwire=Cwire
    IRow\<40\> (WL\<40\>) BitCellRow Rwire=Rwire Cwire=Cwire
    IRow\<41\> (WL\<41\>) BitCellRow Rwire=Rwire Cwire=Cwire
    IRow\<42\> (WL\<42\>) BitCellRow Rwire=Rwire Cwire=Cwire
    IRow\<43\> (WL\<43\>) BitCellRow Rwire=Rwire Cwire=Cwire
    IRow\<44\> (WL\<44\>) BitCellRow Rwire=Rwire Cwire=Cwire
    IRow\<45\> (WL\<45\>) BitCellRow Rwire=Rwire Cwire=Cwire