// Generated for: spectre
// Generated on: Dec 22 12:39:07 2022
// Design library name: project_4x
// Design cell name: RowDecoder_256_4xP_TB
// Design view name: schematic
simulator lang=spectre
global 0 vdd!
