// File: /home/edauser0/ayigit/RowDecoder_Project/CDS_VISIO/project_pex/Post_L8_256t8_Text/spectreText/spectre.scs
// Created: Tue Dec 21 11:41:04 2021
// Program "Calibre xRC"
// Version "v2020.1_17.9"
// 
simulator lang=spectre
include "/home/edauser0/ayigit/RowDecoder_Project/CDS_VISIO/project_pex/Post_L8_256t8_Text/spectreText/spectre.scs.pex"
subckt Post_L8_256t8_Text (  SEL7\<1\> SEL0\<0\> SEL1\<1\> SEL2\<1\> SEL3\<0\> \
 SEL4\<1\> SEL5\<1\> SEL6\<1\> SEL0\<1\> SEL1\<0\> SEL2\<0\> SEL3\<1\> \
 WLSEL\<1967\> WLSEL\<1968\> WLSEL\<1969\> WLSEL\<1970\> WLSEL\<1971\> \
 WLSEL\<1972\> WLSEL\<1973\> WLSEL\<1974\> WLSEL\<1975\> WLSEL\<1976\> \
 WLSEL\<1977\> WLSEL\<1978\> WLSEL\<1979\> WLSEL\<1980\> WLSEL\<1981\> \
 WLSEL\<1982\> WLSEL\<1983\> WLSEL\<1984\> WLSEL\<1985\> WLSEL\<1986\> \
 WLSEL\<1987\> WLSEL\<1988\> WLSEL\<1989\> WLSEL\<1990\> WLSEL\<1991\> \
 WLSEL\<1992\> WLSEL\<1993\> WLSEL\<1994\> WLSEL\<1995\> WLSEL\<1996\> \
 WLSEL\<1997\> WLSEL\<1998\> WLSEL\<1999\> WLSEL\<2000\> WLSEL\<2001\> \
 WLSEL\<2002\> WLSEL\<2003\> WLSEL\<2004\> WLSEL\<2005\> WLSEL\<2006\> \
 WLSEL\<2007\> WLSEL\<2008\> WLSEL\<2009\> WLSEL\<2010\> WLSEL\<2011\> \
 WLSEL\<2012\> WLSEL\<2013\> WLSEL\<2014\> WLSEL\<2015\> WLSEL\<2016\> \
 WLSEL\<2017\> WLSEL\<2018\> WLSEL\<2019\> WLSEL\<2020\> WLSEL\<2021\> \
 WLSEL\<2022\> WLSEL\<2023\> WLSEL\<2024\> WLSEL\<2025\> WLSEL\<2026\> \
 WLSEL\<2027\> WLSEL\<2028\> WLSEL\<2029\> WLSEL\<2030\> WLSEL\<2031\> \
 WLSEL\<2032\> WLSEL\<2033\> WLSEL\<2034\> WLSEL\<2035\> WLSEL\<2036\> \
 WLSEL\<2037\> WLSEL\<2038\> WLSEL\<2039\> WLSEL\<2040\> WLSEL\<2041\> \
 WLSEL\<2042\> WLSEL\<2043\> WLSEL\<2044\> WLSEL\<2045\> WLSEL\<2046\> \
 WLSEL\<2047\> SEL6\<0\> WLSEL\<1455\> WLSEL\<1456\> WLSEL\<1457\> \
 WLSEL\<1458\> WLSEL\<1459\> WLSEL\<1460\> WLSEL\<1461\> WLSEL\<1462\> \
 WLSEL\<1463\> WLSEL\<1464\> WLSEL\<1465\> WLSEL\<1466\> WLSEL\<1467\> \
 WLSEL\<1468\> WLSEL\<1469\> WLSEL\<1470\> WLSEL\<1471\> WLSEL\<1472\> \
 WLSEL\<1473\> WLSEL\<1474\> WLSEL\<1475\> WLSEL\<1476\> WLSEL\<1477\> \
 WLSEL\<1478\> WLSEL\<1479\> WLSEL\<1480\> WLSEL\<1481\> WLSEL\<1482\> \
 WLSEL\<1483\> WLSEL\<1484\> WLSEL\<1485\> WLSEL\<1486\> WLSEL\<1487\> \
 WLSEL\<1488\> WLSEL\<1489\> WLSEL\<1490\> WLSEL\<1491\> WLSEL\<1492\> \
 WLSEL\<1493\> WLSEL\<1494\> WLSEL\<1495\> WLSEL\<1496\> WLSEL\<1497\> \
 WLSEL\<1498\> WLSEL\<1499\> WLSEL\<1500\> WLSEL\<1501\> WLSEL\<1502\> \
 WLSEL\<1503\> WLSEL\<1504\> WLSEL\<1505\> WLSEL\<1506\> WLSEL\<1507\> \
 WLSEL\<1508\> WLSEL\<1509\> WLSEL\<1510\> WLSEL\<1511\> WLSEL\<1512\> \
 WLSEL\<1513\> WLSEL\<1514\> WLSEL\<1515\> WLSEL\<1516\> WLSEL\<1517\> \
 WLSEL\<1518\> WLSEL\<1519\> WLSEL\<1520\> WLSEL\<1521\> WLSEL\<1522\> \
 WLSEL\<1523\> WLSEL\<1524\> WLSEL\<1525\> WLSEL\<1526\> WLSEL\<1527\> \
 WLSEL\<1528\> WLSEL\<1529\> WLSEL\<1530\> WLSEL\<1531\> WLSEL\<1532\> \
 WLSEL\<1533\> WLSEL\<1534\> WLSEL\<1535\> SEL7\<0\> WLSEL\<943\> WLSEL\<944\> \
 WLSEL\<945\> WLSEL\<946\> WLSEL\<947\> WLSEL\<948\> WLSEL\<949\> WLSEL\<950\> \
 WLSEL\<951\> WLSEL\<952\> WLSEL\<953\> WLSEL\<954\> WLSEL\<955\> WLSEL\<956\> \
 WLSEL\<957\> WLSEL\<958\> WLSEL\<959\> WLSEL\<960\> WLSEL\<961\> WLSEL\<962\> \
 WLSEL\<963\> WLSEL\<964\> WLSEL\<965\> WLSEL\<966\> WLSEL\<967\> WLSEL\<968\> \
 WLSEL\<969\> WLSEL\<970\> WLSEL\<971\> WLSEL\<972\> WLSEL\<973\> WLSEL\<974\> \
 WLSEL\<975\> WLSEL\<976\> WLSEL\<977\> WLSEL\<978\> WLSEL\<979\> WLSEL\<980\> \
 WLSEL\<981\> WLSEL\<982\> WLSEL\<983\> WLSEL\<984\> WLSEL\<985\> WLSEL\<986\> \
 WLSEL\<987\> WLSEL\<988\> WLSEL\<989\> WLSEL\<990\> WLSEL\<991\> WLSEL\<992\> \
 WLSEL\<993\> WLSEL\<994\> WLSEL\<995\> WLSEL\<996\> WLSEL\<997\> WLSEL\<998\> \
 WLSEL\<999\> WLSEL\<1000\> WLSEL\<1001\> WLSEL\<1002\> WLSEL\<1003\> \
 WLSEL\<1004\> WLSEL\<1005\> WLSEL\<1006\> WLSEL\<1007\> WLSEL\<1008\> \
 WLSEL\<1009\> WLSEL\<1010\> WLSEL\<1011\> WLSEL\<1012\> WLSEL\<1013\> \
 WLSEL\<1014\> WLSEL\<1015\> WLSEL\<1016\> WLSEL\<1017\> WLSEL\<1018\> \
 WLSEL\<1019\> WLSEL\<1020\> WLSEL\<1021\> WLSEL\<1022\> WLSEL\<1023\> \
 WLSEL\<431\> WLSEL\<432\> WLSEL\<433\> WLSEL\<434\> WLSEL\<435\> WLSEL\<436\> \
 WLSEL\<437\> WLSEL\<438\> WLSEL\<439\> WLSEL\<440\> WLSEL\<441\> WLSEL\<442\> \
 WLSEL\<443\> WLSEL\<444\> WLSEL\<445\> WLSEL\<446\> WLSEL\<447\> WLSEL\<448\> \
 WLSEL\<449\> WLSEL\<450\> WLSEL\<451\> WLSEL\<452\> WLSEL\<453\> WLSEL\<454\> \
 WLSEL\<455\> WLSEL\<456\> WLSEL\<457\> WLSEL\<458\> WLSEL\<459\> WLSEL\<460\> \
 WLSEL\<461\> WLSEL\<462\> WLSEL\<463\> WLSEL\<464\> WLSEL\<465\> WLSEL\<466\> \
 WLSEL\<467\> WLSEL\<468\> WLSEL\<469\> WLSEL\<470\> WLSEL\<471\> WLSEL\<472\> \
 WLSEL\<473\> WLSEL\<474\> WLSEL\<475\> WLSEL\<476\> WLSEL\<477\> WLSEL\<478\> \
 WLSEL\<479\> WLSEL\<480\> WLSEL\<481\> WLSEL\<482\> WLSEL\<483\> WLSEL\<484\> \
 WLSEL\<485\> WLSEL\<486\> WLSEL\<487\> WLSEL\<488\> WLSEL\<489\> WLSEL\<490\> \
 WLSEL\<491\> WLSEL\<492\> WLSEL\<493\> WLSEL\<494\> WLSEL\<495\> WLSEL\<496\> \
 WLSEL\<497\> WLSEL\<498\> WLSEL\<499\> WLSEL\<500\> WLSEL\<501\> WLSEL\<502\> \
 WLSEL\<503\> WLSEL\<504\> WLSEL\<505\> WLSEL\<506\> WLSEL\<507\> WLSEL\<508\> \
 WLSEL\<509\> WLSEL\<510\> WLSEL\<511\> SEL4\<0\> WLSEL\<1887\> WLSEL\<1888\> \
 WLSEL\<1889\> WLSEL\<1890\> WLSEL\<1891\> WLSEL\<1892\> WLSEL\<1893\> \
 WLSEL\<1894\> WLSEL\<1895\> WLSEL\<1896\> WLSEL\<1897\> WLSEL\<1898\> \
 WLSEL\<1899\> WLSEL\<1900\> WLSEL\<1901\> WLSEL\<1902\> WLSEL\<1903\> \
 WLSEL\<1904\> WLSEL\<1905\> WLSEL\<1906\> WLSEL\<1907\> WLSEL\<1908\> \
 WLSEL\<1909\> WLSEL\<1910\> WLSEL\<1911\> WLSEL\<1912\> WLSEL\<1913\> \
 WLSEL\<1914\> WLSEL\<1915\> WLSEL\<1916\> WLSEL\<1917\> WLSEL\<1918\> \
 WLSEL\<1919\> WLSEL\<1920\> WLSEL\<1921\> WLSEL\<1922\> WLSEL\<1923\> \
 WLSEL\<1924\> WLSEL\<1925\> WLSEL\<1926\> WLSEL\<1927\> WLSEL\<1928\> \
 WLSEL\<1929\> WLSEL\<1930\> WLSEL\<1931\> WLSEL\<1932\> WLSEL\<1933\> \
 WLSEL\<1934\> WLSEL\<1935\> WLSEL\<1936\> WLSEL\<1937\> WLSEL\<1938\> \
 WLSEL\<1939\> WLSEL\<1940\> WLSEL\<1941\> WLSEL\<1942\> WLSEL\<1943\> \
 WLSEL\<1944\> WLSEL\<1945\> WLSEL\<1946\> WLSEL\<1947\> WLSEL\<1948\> \
 WLSEL\<1949\> WLSEL\<1950\> WLSEL\<1951\> WLSEL\<1952\> WLSEL\<1953\> \
 WLSEL\<1954\> WLSEL\<1955\> WLSEL\<1956\> WLSEL\<1957\> WLSEL\<1958\> \
 WLSEL\<1959\> WLSEL\<1960\> WLSEL\<1961\> WLSEL\<1962\> WLSEL\<1963\> \
 WLSEL\<1964\> WLSEL\<1965\> WLSEL\<1966\> WLSEL\<1375\> WLSEL\<1376\> \
 WLSEL\<1377\> WLSEL\<1378\> WLSEL\<1379\> WLSEL\<1380\> WLSEL\<1381\> \
 WLSEL\<1382\> WLSEL\<1383\> WLSEL\<1384\> WLSEL\<1385\> WLSEL\<1386\> \
 WLSEL\<1387\> WLSEL\<1388\> WLSEL\<1389\> WLSEL\<1390\> WLSEL\<1391\> \
 WLSEL\<1392\> WLSEL\<1393\> WLSEL\<1394\> WLSEL\<1395\> WLSEL\<1396\> \
 WLSEL\<1397\> WLSEL\<1398\> WLSEL\<1399\> WLSEL\<1400\> WLSEL\<1401\> \
 WLSEL\<1402\> WLSEL\<1403\> WLSEL\<1404\> WLSEL\<1405\> WLSEL\<1406\> \
 WLSEL\<1407\> WLSEL\<1408\> WLSEL\<1409\> WLSEL\<1410\> WLSEL\<1411\> \
 WLSEL\<1412\> WLSEL\<1413\> WLSEL\<1414\> WLSEL\<1415\> WLSEL\<1416\> \
 WLSEL\<1417\> WLSEL\<1418\> WLSEL\<1419\> WLSEL\<1420\> WLSEL\<1421\> \
 WLSEL\<1422\> WLSEL\<1423\> WLSEL\<1424\> WLSEL\<1425\> WLSEL\<1426\> \
 WLSEL\<1427\> WLSEL\<1428\> WLSEL\<1429\> WLSEL\<1430\> WLSEL\<1431\> \
 WLSEL\<1432\> WLSEL\<1433\> WLSEL\<1434\> WLSEL\<1435\> WLSEL\<1436\> \
 WLSEL\<1437\> WLSEL\<1438\> WLSEL\<1439\> WLSEL\<1440\> WLSEL\<1441\> \
 WLSEL\<1442\> WLSEL\<1443\> WLSEL\<1444\> WLSEL\<1445\> WLSEL\<1446\> \
 WLSEL\<1447\> WLSEL\<1448\> WLSEL\<1449\> WLSEL\<1450\> WLSEL\<1451\> \
 WLSEL\<1452\> WLSEL\<1453\> WLSEL\<1454\> WLSEL\<863\> WLSEL\<864\> \
 WLSEL\<865\> WLSEL\<866\> WLSEL\<867\> WLSEL\<868\> WLSEL\<869\> WLSEL\<870\> \
 WLSEL\<871\> WLSEL\<872\> WLSEL\<873\> WLSEL\<874\> WLSEL\<875\> WLSEL\<876\> \
 WLSEL\<877\> WLSEL\<878\> WLSEL\<879\> WLSEL\<880\> WLSEL\<881\> WLSEL\<882\> \
 WLSEL\<883\> WLSEL\<884\> WLSEL\<885\> WLSEL\<886\> WLSEL\<887\> WLSEL\<888\> \
 WLSEL\<889\> WLSEL\<890\> WLSEL\<891\> WLSEL\<892\> WLSEL\<893\> WLSEL\<894\> \
 WLSEL\<895\> WLSEL\<896\> WLSEL\<897\> WLSEL\<898\> WLSEL\<899\> WLSEL\<900\> \
 WLSEL\<901\> WLSEL\<902\> WLSEL\<903\> WLSEL\<904\> WLSEL\<905\> WLSEL\<906\> \
 WLSEL\<907\> WLSEL\<908\> WLSEL\<909\> WLSEL\<910\> WLSEL\<911\> WLSEL\<912\> \
 WLSEL\<913\> WLSEL\<914\> WLSEL\<915\> WLSEL\<916\> WLSEL\<917\> WLSEL\<918\> \
 WLSEL\<919\> WLSEL\<920\> WLSEL\<921\> WLSEL\<922\> WLSEL\<923\> WLSEL\<924\> \
 WLSEL\<925\> WLSEL\<926\> WLSEL\<927\> WLSEL\<928\> WLSEL\<929\> WLSEL\<930\> \
 WLSEL\<931\> WLSEL\<932\> WLSEL\<933\> WLSEL\<934\> WLSEL\<935\> WLSEL\<936\> \
 WLSEL\<937\> WLSEL\<938\> WLSEL\<939\> WLSEL\<940\> WLSEL\<941\> WLSEL\<942\> \
 WLSEL\<351\> WLSEL\<352\> WLSEL\<353\> WLSEL\<354\> WLSEL\<355\> WLSEL\<356\> \
 WLSEL\<357\> WLSEL\<358\> WLSEL\<359\> WLSEL\<360\> WLSEL\<361\> WLSEL\<362\> \
 WLSEL\<363\> WLSEL\<364\> WLSEL\<365\> WLSEL\<366\> WLSEL\<367\> WLSEL\<368\> \
 WLSEL\<369\> WLSEL\<370\> WLSEL\<371\> WLSEL\<372\> WLSEL\<373\> WLSEL\<374\> \
 WLSEL\<375\> WLSEL\<376\> WLSEL\<377\> WLSEL\<378\> WLSEL\<379\> WLSEL\<380\> \
 WLSEL\<381\> WLSEL\<382\> WLSEL\<383\> WLSEL\<384\> WLSEL\<385\> WLSEL\<386\> \
 WLSEL\<387\> WLSEL\<388\> WLSEL\<389\> WLSEL\<390\> WLSEL\<391\> WLSEL\<392\> \
 WLSEL\<393\> WLSEL\<394\> WLSEL\<395\> WLSEL\<396\> WLSEL\<397\> WLSEL\<398\> \
 WLSEL\<399\> WLSEL\<400\> WLSEL\<401\> WLSEL\<402\> WLSEL\<403\> WLSEL\<404\> \
 WLSEL\<405\> WLSEL\<406\> WLSEL\<407\> WLSEL\<408\> WLSEL\<409\> WLSEL\<410\> \
 WLSEL\<411\> WLSEL\<412\> WLSEL\<413\> WLSEL\<414\> WLSEL\<415\> WLSEL\<416\> \
 WLSEL\<417\> WLSEL\<418\> WLSEL\<419\> WLSEL\<420\> WLSEL\<421\> WLSEL\<422\> \
 WLSEL\<423\> WLSEL\<424\> WLSEL\<425\> WLSEL\<426\> WLSEL\<427\> WLSEL\<428\> \
 WLSEL\<429\> WLSEL\<430\> WLSEL\<1806\> WLSEL\<1807\> WLSEL\<1808\> \
 WLSEL\<1809\> WLSEL\<1810\> WLSEL\<1811\> WLSEL\<1812\> WLSEL\<1813\> \
 WLSEL\<1814\> WLSEL\<1815\> WLSEL\<1816\> WLSEL\<1817\> WLSEL\<1818\> \
 WLSEL\<1819\> WLSEL\<1820\> WLSEL\<1821\> WLSEL\<1822\> WLSEL\<1823\> \
 WLSEL\<1824\> WLSEL\<1825\> WLSEL\<1826\> WLSEL\<1827\> WLSEL\<1828\> \
 WLSEL\<1829\> WLSEL\<1830\> WLSEL\<1831\> WLSEL\<1832\> WLSEL\<1833\> \
 WLSEL\<1834\> WLSEL\<1835\> WLSEL\<1836\> WLSEL\<1837\> WLSEL\<1838\> \
 WLSEL\<1839\> WLSEL\<1840\> WLSEL\<1841\> WLSEL\<1842\> WLSEL\<1843\> \
 WLSEL\<1844\> WLSEL\<1845\> WLSEL\<1846\> WLSEL\<1847\> WLSEL\<1848\> \
 WLSEL\<1849\> WLSEL\<1850\> WLSEL\<1851\> WLSEL\<1852\> WLSEL\<1853\> \
 WLSEL\<1854\> WLSEL\<1855\> WLSEL\<1856\> WLSEL\<1857\> WLSEL\<1858\> \
 WLSEL\<1859\> WLSEL\<1860\> WLSEL\<1861\> WLSEL\<1862\> WLSEL\<1863\> \
 WLSEL\<1864\> WLSEL\<1865\> WLSEL\<1866\> WLSEL\<1867\> WLSEL\<1868\> \
 WLSEL\<1869\> WLSEL\<1870\> WLSEL\<1871\> WLSEL\<1872\> WLSEL\<1873\> \
 WLSEL\<1874\> WLSEL\<1875\> WLSEL\<1876\> WLSEL\<1877\> WLSEL\<1878\> \
 WLSEL\<1879\> WLSEL\<1880\> WLSEL\<1881\> WLSEL\<1882\> WLSEL\<1883\> \
 WLSEL\<1884\> WLSEL\<1885\> WLSEL\<1886\> WLSEL\<1294\> WLSEL\<1295\> \
 WLSEL\<1296\> WLSEL\<1297\> WLSEL\<1298\> WLSEL\<1299\> WLSEL\<1300\> \
 WLSEL\<1301\> WLSEL\<1302\> WLSEL\<1303\> WLSEL\<1304\> WLSEL\<1305\> \
 WLSEL\<1306\> WLSEL\<1307\> WLSEL\<1308\> WLSEL\<1309\> WLSEL\<1310\> \
 WLSEL\<1311\> WLSEL\<1312\> WLSEL\<1313\> WLSEL\<1314\> WLSEL\<1315\> \
 WLSEL\<1316\> WLSEL\<1317\> WLSEL\<1318\> WLSEL\<1319\> WLSEL\<1320\> \
 WLSEL\<1321\> WLSEL\<1322\> WLSEL\<1323\> WLSEL\<1324\> WLSEL\<1325\> \
 WLSEL\<1326\> WLSEL\<1327\> WLSEL\<1328\> WLSEL\<1329\> WLSEL\<1330\> \
 WLSEL\<1331\> WLSEL\<1332\> WLSEL\<1333\> WLSEL\<1334\> WLSEL\<1335\> \
 WLSEL\<1336\> WLSEL\<1337\> WLSEL\<1338\> WLSEL\<1339\> WLSEL\<1340\> \
 WLSEL\<1341\> WLSEL\<1342\> WLSEL\<1343\> WLSEL\<1344\> WLSEL\<1345\> \
 WLSEL\<1346\> WLSEL\<1347\> WLSEL\<1348\> WLSEL\<1349\> WLSEL\<1350\> \
 WLSEL\<1351\> WLSEL\<1352\> WLSEL\<1353\> WLSEL\<1354\> WLSEL\<1355\> \
 WLSEL\<1356\> WLSEL\<1357\> WLSEL\<1358\> WLSEL\<1359\> WLSEL\<1360\> \
 WLSEL\<1361\> WLSEL\<1362\> WLSEL\<1363\> WLSEL\<1364\> WLSEL\<1365\> \
 WLSEL\<1366\> WLSEL\<1367\> WLSEL\<1368\> WLSEL\<1369\> WLSEL\<1370\> \
 WLSEL\<1371\> WLSEL\<1372\> WLSEL\<1373\> WLSEL\<1374\> WLSEL\<782\> \
 WLSEL\<783\> WLSEL\<784\> WLSEL\<785\> WLSEL\<786\> WLSEL\<787\> WLSEL\<788\> \
 WLSEL\<789\> WLSEL\<790\> WLSEL\<791\> WLSEL\<792\> WLSEL\<793\> WLSEL\<794\> \
 WLSEL\<795\> WLSEL\<796\> WLSEL\<797\> WLSEL\<798\> WLSEL\<799\> WLSEL\<800\> \
 WLSEL\<801\> WLSEL\<802\> WLSEL\<803\> WLSEL\<804\> WLSEL\<805\> WLSEL\<806\> \
 WLSEL\<807\> WLSEL\<808\> WLSEL\<809\> WLSEL\<810\> WLSEL\<811\> WLSEL\<812\> \
 WLSEL\<813\> WLSEL\<814\> WLSEL\<815\> WLSEL\<816\> WLSEL\<817\> WLSEL\<818\> \
 WLSEL\<819\> WLSEL\<820\> WLSEL\<821\> WLSEL\<822\> WLSEL\<823\> WLSEL\<824\> \
 WLSEL\<825\> WLSEL\<826\> WLSEL\<827\> WLSEL\<828\> WLSEL\<829\> WLSEL\<830\> \
 WLSEL\<831\> WLSEL\<832\> WLSEL\<833\> WLSEL\<834\> WLSEL\<835\> WLSEL\<836\> \
 WLSEL\<837\> WLSEL\<838\> WLSEL\<839\> WLSEL\<840\> WLSEL\<841\> WLSEL\<842\> \
 WLSEL\<843\> WLSEL\<844\> WLSEL\<845\> WLSEL\<846\> WLSEL\<847\> WLSEL\<848\> \
 WLSEL\<849\> WLSEL\<850\> WLSEL\<851\> WLSEL\<852\> WLSEL\<853\> WLSEL\<854\> \
 WLSEL\<855\> WLSEL\<856\> WLSEL\<857\> WLSEL\<858\> WLSEL\<859\> WLSEL\<860\> \
 WLSEL\<861\> WLSEL\<862\> WLSEL\<270\> WLSEL\<271\> WLSEL\<272\> WLSEL\<273\> \
 WLSEL\<274\> WLSEL\<275\> WLSEL\<276\> WLSEL\<277\> WLSEL\<278\> WLSEL\<279\> \
 WLSEL\<280\> WLSEL\<281\> WLSEL\<282\> WLSEL\<283\> WLSEL\<284\> WLSEL\<285\> \
 WLSEL\<286\> WLSEL\<287\> WLSEL\<288\> WLSEL\<289\> WLSEL\<290\> WLSEL\<291\> \
 WLSEL\<292\> WLSEL\<293\> WLSEL\<294\> WLSEL\<295\> WLSEL\<296\> WLSEL\<297\> \
 WLSEL\<298\> WLSEL\<299\> WLSEL\<300\> WLSEL\<301\> WLSEL\<302\> WLSEL\<303\> \
 WLSEL\<304\> WLSEL\<305\> WLSEL\<306\> WLSEL\<307\> WLSEL\<308\> WLSEL\<309\> \
 WLSEL\<310\> WLSEL\<311\> WLSEL\<312\> WLSEL\<313\> WLSEL\<314\> WLSEL\<315\> \
 WLSEL\<316\> WLSEL\<317\> WLSEL\<318\> WLSEL\<319\> WLSEL\<320\> WLSEL\<321\> \
 WLSEL\<322\> WLSEL\<323\> WLSEL\<324\> WLSEL\<325\> WLSEL\<326\> WLSEL\<327\> \
 WLSEL\<328\> WLSEL\<329\> WLSEL\<330\> WLSEL\<331\> WLSEL\<332\> WLSEL\<333\> \
 WLSEL\<334\> WLSEL\<335\> WLSEL\<336\> WLSEL\<337\> WLSEL\<338\> WLSEL\<339\> \
 WLSEL\<340\> WLSEL\<341\> WLSEL\<342\> WLSEL\<343\> WLSEL\<344\> WLSEL\<345\> \
 WLSEL\<346\> WLSEL\<347\> WLSEL\<348\> WLSEL\<349\> WLSEL\<350\> SEL5\<0\> \
 WLSEL\<1726\> WLSEL\<1727\> WLSEL\<1728\> WLSEL\<1729\> WLSEL\<1730\> \
 WLSEL\<1731\> WLSEL\<1732\> WLSEL\<1733\> WLSEL\<1734\> WLSEL\<1735\> \
 WLSEL\<1736\> WLSEL\<1737\> WLSEL\<1738\> WLSEL\<1739\> WLSEL\<1740\> \
 WLSEL\<1741\> WLSEL\<1742\> WLSEL\<1743\> WLSEL\<1744\> WLSEL\<1745\> \
 WLSEL\<1746\> WLSEL\<1747\> WLSEL\<1748\> WLSEL\<1749\> WLSEL\<1750\> \
 WLSEL\<1751\> WLSEL\<1752\> WLSEL\<1753\> WLSEL\<1754\> WLSEL\<1755\> \
 WLSEL\<1756\> WLSEL\<1757\> WLSEL\<1758\> WLSEL\<1759\> WLSEL\<1760\> \
 WLSEL\<1761\> WLSEL\<1762\> WLSEL\<1763\> WLSEL\<1764\> WLSEL\<1765\> \
 WLSEL\<1766\> WLSEL\<1767\> WLSEL\<1768\> WLSEL\<1769\> WLSEL\<1770\> \
 WLSEL\<1771\> WLSEL\<1772\> WLSEL\<1773\> WLSEL\<1774\> WLSEL\<1775\> \
 WLSEL\<1776\> WLSEL\<1777\> WLSEL\<1778\> WLSEL\<1779\> WLSEL\<1780\> \
 WLSEL\<1781\> WLSEL\<1782\> WLSEL\<1783\> WLSEL\<1784\> WLSEL\<1785\> \
 WLSEL\<1786\> WLSEL\<1787\> WLSEL\<1788\> WLSEL\<1789\> WLSEL\<1790\> \
 WLSEL\<1791\> WLSEL\<1792\> WLSEL\<1793\> WLSEL\<1794\> WLSEL\<1795\> \
 WLSEL\<1796\> WLSEL\<1797\> WLSEL\<1798\> WLSEL\<1799\> WLSEL\<1800\> \
 WLSEL\<1801\> WLSEL\<1802\> WLSEL\<1803\> WLSEL\<1804\> WLSEL\<1805\> \
 WLSEL\<1214\> WLSEL\<1215\> WLSEL\<1216\> WLSEL\<1217\> WLSEL\<1218\> \
 WLSEL\<1219\> WLSEL\<1220\> WLSEL\<1221\> WLSEL\<1222\> WLSEL\<1223\> \
 WLSEL\<1224\> WLSEL\<1225\> WLSEL\<1226\> WLSEL\<1227\> WLSEL\<1228\> \
 WLSEL\<1229\> WLSEL\<1230\> WLSEL\<1231\> WLSEL\<1232\> WLSEL\<1233\> \
 WLSEL\<1234\> WLSEL\<1235\> WLSEL\<1236\> WLSEL\<1237\> WLSEL\<1238\> \
 WLSEL\<1239\> WLSEL\<1240\> WLSEL\<1241\> WLSEL\<1242\> WLSEL\<1243\> \
 WLSEL\<1244\> WLSEL\<1245\> WLSEL\<1246\> WLSEL\<1247\> WLSEL\<1248\> \
 WLSEL\<1249\> WLSEL\<1250\> WLSEL\<1251\> WLSEL\<1252\> WLSEL\<1253\> \
 WLSEL\<1254\> WLSEL\<1255\> WLSEL\<1256\> WLSEL\<1257\> WLSEL\<1258\> \
 WLSEL\<1259\> WLSEL\<1260\> WLSEL\<1261\> WLSEL\<1262\> WLSEL\<1263\> \
 WLSEL\<1264\> WLSEL\<1265\> WLSEL\<1266\> WLSEL\<1267\> WLSEL\<1268\> \
 WLSEL\<1269\> WLSEL\<1270\> WLSEL\<1271\> WLSEL\<1272\> WLSEL\<1273\> \
 WLSEL\<1274\> WLSEL\<1275\> WLSEL\<1276\> WLSEL\<1277\> WLSEL\<1278\> \
 WLSEL\<1279\> WLSEL\<1280\> WLSEL\<1281\> WLSEL\<1282\> WLSEL\<1283\> \
 WLSEL\<1284\> WLSEL\<1285\> WLSEL\<1286\> WLSEL\<1287\> WLSEL\<1288\> \
 WLSEL\<1289\> WLSEL\<1290\> WLSEL\<1291\> WLSEL\<1292\> WLSEL\<1293\> \
 WLSEL\<702\> WLSEL\<703\> WLSEL\<704\> WLSEL\<705\> WLSEL\<706\> WLSEL\<707\> \
 WLSEL\<708\> WLSEL\<709\> WLSEL\<710\> WLSEL\<711\> WLSEL\<712\> WLSEL\<713\> \
 WLSEL\<714\> WLSEL\<715\> WLSEL\<716\> WLSEL\<717\> WLSEL\<718\> WLSEL\<719\> \
 WLSEL\<720\> WLSEL\<721\> WLSEL\<722\> WLSEL\<723\> WLSEL\<724\> WLSEL\<725\> \
 WLSEL\<726\> WLSEL\<727\> WLSEL\<728\> WLSEL\<729\> WLSEL\<730\> WLSEL\<731\> \
 WLSEL\<732\> WLSEL\<733\> WLSEL\<734\> WLSEL\<735\> WLSEL\<736\> WLSEL\<737\> \
 WLSEL\<738\> WLSEL\<739\> WLSEL\<740\> WLSEL\<741\> WLSEL\<742\> WLSEL\<743\> \
 WLSEL\<744\> WLSEL\<745\> WLSEL\<746\> WLSEL\<747\> WLSEL\<748\> WLSEL\<749\> \
 WLSEL\<750\> WLSEL\<751\> WLSEL\<752\> WLSEL\<753\> WLSEL\<754\> WLSEL\<755\> \
 WLSEL\<756\> WLSEL\<757\> WLSEL\<758\> WLSEL\<759\> WLSEL\<760\> WLSEL\<761\> \
 WLSEL\<762\> WLSEL\<763\> WLSEL\<764\> WLSEL\<765\> WLSEL\<766\> WLSEL\<767\> \
 WLSEL\<768\> WLSEL\<769\> WLSEL\<770\> WLSEL\<771\> WLSEL\<772\> WLSEL\<773\> \
 WLSEL\<774\> WLSEL\<775\> WLSEL\<776\> WLSEL\<777\> WLSEL\<778\> WLSEL\<779\> \
 WLSEL\<780\> WLSEL\<781\> WLSEL\<190\> WLSEL\<191\> WLSEL\<192\> WLSEL\<193\> \
 WLSEL\<194\> WLSEL\<195\> WLSEL\<196\> WLSEL\<197\> WLSEL\<198\> WLSEL\<199\> \
 WLSEL\<200\> WLSEL\<201\> WLSEL\<202\> WLSEL\<203\> WLSEL\<204\> WLSEL\<205\> \
 WLSEL\<206\> WLSEL\<207\> WLSEL\<208\> WLSEL\<209\> WLSEL\<210\> WLSEL\<211\> \
 WLSEL\<212\> WLSEL\<213\> WLSEL\<214\> WLSEL\<215\> WLSEL\<216\> WLSEL\<217\> \
 WLSEL\<218\> WLSEL\<219\> WLSEL\<220\> WLSEL\<221\> WLSEL\<222\> WLSEL\<223\> \
 WLSEL\<224\> WLSEL\<225\> WLSEL\<226\> WLSEL\<227\> WLSEL\<228\> WLSEL\<229\> \
 WLSEL\<230\> WLSEL\<231\> WLSEL\<232\> WLSEL\<233\> WLSEL\<234\> WLSEL\<235\> \
 WLSEL\<236\> WLSEL\<237\> WLSEL\<238\> WLSEL\<239\> WLSEL\<240\> WLSEL\<241\> \
 WLSEL\<242\> WLSEL\<243\> WLSEL\<244\> WLSEL\<245\> WLSEL\<246\> WLSEL\<247\> \
 WLSEL\<248\> WLSEL\<249\> WLSEL\<250\> WLSEL\<251\> WLSEL\<252\> WLSEL\<253\> \
 WLSEL\<254\> WLSEL\<255\> WLSEL\<256\> WLSEL\<257\> WLSEL\<258\> WLSEL\<259\> \
 WLSEL\<260\> WLSEL\<261\> WLSEL\<262\> WLSEL\<263\> WLSEL\<264\> WLSEL\<265\> \
 WLSEL\<266\> WLSEL\<267\> WLSEL\<268\> WLSEL\<269\> WLSEL\<1645\> \
 WLSEL\<1646\> WLSEL\<1647\> WLSEL\<1648\> WLSEL\<1649\> WLSEL\<1650\> \
 WLSEL\<1651\> WLSEL\<1652\> WLSEL\<1653\> WLSEL\<1654\> WLSEL\<1655\> \
 WLSEL\<1656\> WLSEL\<1657\> WLSEL\<1658\> WLSEL\<1659\> WLSEL\<1660\> \
 WLSEL\<1661\> WLSEL\<1662\> WLSEL\<1663\> WLSEL\<1664\> WLSEL\<1665\> \
 WLSEL\<1666\> WLSEL\<1667\> WLSEL\<1668\> WLSEL\<1669\> WLSEL\<1670\> \
 WLSEL\<1671\> WLSEL\<1672\> WLSEL\<1673\> WLSEL\<1674\> WLSEL\<1675\> \
 WLSEL\<1676\> WLSEL\<1677\> WLSEL\<1678\> WLSEL\<1679\> WLSEL\<1680\> \
 WLSEL\<1681\> WLSEL\<1682\> WLSEL\<1683\> WLSEL\<1684\> WLSEL\<1685\> \
 WLSEL\<1686\> WLSEL\<1687\> WLSEL\<1688\> WLSEL\<1689\> WLSEL\<1690\> \
 WLSEL\<1691\> WLSEL\<1692\> WLSEL\<1693\> WLSEL\<1694\> WLSEL\<1695\> \
 WLSEL\<1696\> WLSEL\<1697\> WLSEL\<1698\> WLSEL\<1699\> WLSEL\<1700\> \
 WLSEL\<1701\> WLSEL\<1702\> WLSEL\<1703\> WLSEL\<1704\> WLSEL\<1705\> \
 WLSEL\<1706\> WLSEL\<1707\> WLSEL\<1708\> WLSEL\<1709\> WLSEL\<1710\> \
 WLSEL\<1711\> WLSEL\<1712\> WLSEL\<1713\> WLSEL\<1714\> WLSEL\<1715\> \
 WLSEL\<1716\> WLSEL\<1717\> WLSEL\<1718\> WLSEL\<1719\> WLSEL\<1720\> \
 WLSEL\<1721\> WLSEL\<1722\> WLSEL\<1723\> WLSEL\<1724\> WLSEL\<1725\> \
 WLSEL\<1133\> WLSEL\<1134\> WLSEL\<1135\> WLSEL\<1136\> WLSEL\<1137\> \
 WLSEL\<1138\> WLSEL\<1139\> WLSEL\<1140\> WLSEL\<1141\> WLSEL\<1142\> \
 WLSEL\<1143\> WLSEL\<1144\> WLSEL\<1145\> WLSEL\<1146\> WLSEL\<1147\> \
 WLSEL\<1148\> WLSEL\<1149\> WLSEL\<1150\> WLSEL\<1151\> WLSEL\<1152\> \
 WLSEL\<1153\> WLSEL\<1154\> WLSEL\<1155\> WLSEL\<1156\> WLSEL\<1157\> \
 WLSEL\<1158\> WLSEL\<1159\> WLSEL\<1160\> WLSEL\<1161\> WLSEL\<1162\> \
 WLSEL\<1163\> WLSEL\<1164\> WLSEL\<1165\> WLSEL\<1166\> WLSEL\<1167\> \
 WLSEL\<1168\> WLSEL\<1169\> WLSEL\<1170\> WLSEL\<1171\> WLSEL\<1172\> \
 WLSEL\<1173\> WLSEL\<1174\> WLSEL\<1175\> WLSEL\<1176\> WLSEL\<1177\> \
 WLSEL\<1178\> WLSEL\<1179\> WLSEL\<1180\> WLSEL\<1181\> WLSEL\<1182\> \
 WLSEL\<1183\> WLSEL\<1184\> WLSEL\<1185\> WLSEL\<1186\> WLSEL\<1187\> \
 WLSEL\<1188\> WLSEL\<1189\> WLSEL\<1190\> WLSEL\<1191\> WLSEL\<1192\> \
 WLSEL\<1193\> WLSEL\<1194\> WLSEL\<1195\> WLSEL\<1196\> WLSEL\<1197\> \
 WLSEL\<1198\> WLSEL\<1199\> WLSEL\<1200\> WLSEL\<1201\> WLSEL\<1202\> \
 WLSEL\<1203\> WLSEL\<1204\> WLSEL\<1205\> WLSEL\<1206\> WLSEL\<1207\> \
 WLSEL\<1208\> WLSEL\<1209\> WLSEL\<1210\> WLSEL\<1211\> WLSEL\<1212\> \
 WLSEL\<1213\> WLSEL\<621\> WLSEL\<622\> WLSEL\<623\> WLSEL\<624\> \
 WLSEL\<625\> WLSEL\<626\> WLSEL\<627\> WLSEL\<628\> WLSEL\<629\> WLSEL\<630\> \
 WLSEL\<631\> WLSEL\<632\> WLSEL\<633\> WLSEL\<634\> WLSEL\<635\> WLSEL\<636\> \
 WLSEL\<637\> WLSEL\<638\> WLSEL\<639\> WLSEL\<640\> WLSEL\<641\> WLSEL\<642\> \
 WLSEL\<643\> WLSEL\<644\> WLSEL\<645\> WLSEL\<646\> WLSEL\<647\> WLSEL\<648\> \
 WLSEL\<649\> WLSEL\<650\> WLSEL\<651\> WLSEL\<652\> WLSEL\<653\> WLSEL\<654\> \
 WLSEL\<655\> WLSEL\<656\> WLSEL\<657\> WLSEL\<658\> WLSEL\<659\> WLSEL\<660\> \
 WLSEL\<661\> WLSEL\<662\> WLSEL\<663\> WLSEL\<664\> WLSEL\<665\> WLSEL\<666\> \
 WLSEL\<667\> WLSEL\<668\> WLSEL\<669\> WLSEL\<670\> WLSEL\<671\> WLSEL\<672\> \
 WLSEL\<673\> WLSEL\<674\> WLSEL\<675\> WLSEL\<676\> WLSEL\<677\> WLSEL\<678\> \
 WLSEL\<679\> WLSEL\<680\> WLSEL\<681\> WLSEL\<682\> WLSEL\<683\> WLSEL\<684\> \
 WLSEL\<685\> WLSEL\<686\> WLSEL\<687\> WLSEL\<688\> WLSEL\<689\> WLSEL\<690\> \
 WLSEL\<691\> WLSEL\<692\> WLSEL\<693\> WLSEL\<694\> WLSEL\<695\> WLSEL\<696\> \
 WLSEL\<697\> WLSEL\<698\> WLSEL\<699\> WLSEL\<700\> WLSEL\<701\> WLSEL\<109\> \
 WLSEL\<110\> WLSEL\<111\> WLSEL\<112\> WLSEL\<113\> WLSEL\<114\> WLSEL\<115\> \
 WLSEL\<116\> WLSEL\<117\> WLSEL\<118\> WLSEL\<119\> WLSEL\<120\> WLSEL\<121\> \
 WLSEL\<122\> WLSEL\<123\> WLSEL\<124\> WLSEL\<125\> WLSEL\<126\> WLSEL\<127\> \
 WLSEL\<128\> WLSEL\<129\> WLSEL\<130\> WLSEL\<131\> WLSEL\<132\> WLSEL\<133\> \
 WLSEL\<134\> WLSEL\<135\> WLSEL\<136\> WLSEL\<137\> WLSEL\<138\> WLSEL\<139\> \
 WLSEL\<140\> WLSEL\<141\> WLSEL\<142\> WLSEL\<143\> WLSEL\<144\> WLSEL\<145\> \
 WLSEL\<146\> WLSEL\<147\> WLSEL\<148\> WLSEL\<149\> WLSEL\<150\> WLSEL\<151\> \
 WLSEL\<152\> WLSEL\<153\> WLSEL\<154\> WLSEL\<155\> WLSEL\<156\> WLSEL\<157\> \
 WLSEL\<158\> WLSEL\<159\> WLSEL\<160\> WLSEL\<161\> WLSEL\<162\> WLSEL\<163\> \
 WLSEL\<164\> WLSEL\<165\> WLSEL\<166\> WLSEL\<167\> WLSEL\<168\> WLSEL\<169\> \
 WLSEL\<170\> WLSEL\<171\> WLSEL\<172\> WLSEL\<173\> WLSEL\<174\> WLSEL\<175\> \
 WLSEL\<176\> WLSEL\<177\> WLSEL\<178\> WLSEL\<179\> WLSEL\<180\> WLSEL\<181\> \
 WLSEL\<182\> WLSEL\<183\> WLSEL\<184\> WLSEL\<185\> WLSEL\<186\> WLSEL\<187\> \
 WLSEL\<188\> WLSEL\<189\> WLSEL\<1565\> WLSEL\<1566\> WLSEL\<1567\> \
 WLSEL\<1568\> WLSEL\<1569\> WLSEL\<1570\> WLSEL\<1571\> WLSEL\<1572\> \
 WLSEL\<1573\> WLSEL\<1574\> WLSEL\<1575\> WLSEL\<1576\> WLSEL\<1577\> \
 WLSEL\<1578\> WLSEL\<1579\> WLSEL\<1580\> WLSEL\<1581\> WLSEL\<1582\> \
 WLSEL\<1583\> WLSEL\<1584\> WLSEL\<1585\> WLSEL\<1586\> WLSEL\<1587\> \
 WLSEL\<1588\> WLSEL\<1589\> WLSEL\<1590\> WLSEL\<1591\> WLSEL\<1592\> \
 WLSEL\<1593\> WLSEL\<1594\> WLSEL\<1595\> WLSEL\<1596\> WLSEL\<1597\> \
 WLSEL\<1598\> WLSEL\<1599\> WLSEL\<1600\> WLSEL\<1601\> WLSEL\<1602\> \
 WLSEL\<1603\> WLSEL\<1604\> WLSEL\<1605\> WLSEL\<1606\> WLSEL\<1607\> \
 WLSEL\<1608\> WLSEL\<1609\> WLSEL\<1610\> WLSEL\<1611\> WLSEL\<1612\> \
 WLSEL\<1613\> WLSEL\<1614\> WLSEL\<1615\> WLSEL\<1616\> WLSEL\<1617\> \
 WLSEL\<1618\> WLSEL\<1619\> WLSEL\<1620\> WLSEL\<1621\> WLSEL\<1622\> \
 WLSEL\<1623\> WLSEL\<1624\> WLSEL\<1625\> WLSEL\<1626\> WLSEL\<1627\> \
 WLSEL\<1628\> WLSEL\<1629\> WLSEL\<1630\> WLSEL\<1631\> WLSEL\<1632\> \
 WLSEL\<1633\> WLSEL\<1634\> WLSEL\<1635\> WLSEL\<1636\> WLSEL\<1637\> \
 WLSEL\<1638\> WLSEL\<1639\> WLSEL\<1640\> WLSEL\<1641\> WLSEL\<1642\> \
 WLSEL\<1643\> WLSEL\<1644\> WLSEL\<1053\> WLSEL\<1054\> WLSEL\<1055\> \
 WLSEL\<1056\> WLSEL\<1057\> WLSEL\<1058\> WLSEL\<1059\> WLSEL\<1060\> \
 WLSEL\<1061\> WLSEL\<1062\> WLSEL\<1063\> WLSEL\<1064\> WLSEL\<1065\> \
 WLSEL\<1066\> WLSEL\<1067\> WLSEL\<1068\> WLSEL\<1069\> WLSEL\<1070\> \
 WLSEL\<1071\> WLSEL\<1072\> WLSEL\<1073\> WLSEL\<1074\> WLSEL\<1075\> \
 WLSEL\<1076\> WLSEL\<1077\> WLSEL\<1078\> WLSEL\<1079\> WLSEL\<1080\> \
 WLSEL\<1081\> WLSEL\<1082\> WLSEL\<1083\> WLSEL\<1084\> WLSEL\<1085\> \
 WLSEL\<1086\> WLSEL\<1087\> WLSEL\<1088\> WLSEL\<1089\> WLSEL\<1090\> \
 WLSEL\<1091\> WLSEL\<1092\> WLSEL\<1093\> WLSEL\<1094\> WLSEL\<1095\> \
 WLSEL\<1096\> WLSEL\<1097\> WLSEL\<1098\> WLSEL\<1099\> WLSEL\<1100\> \
 WLSEL\<1101\> WLSEL\<1102\> WLSEL\<1103\> WLSEL\<1104\> WLSEL\<1105\> \
 WLSEL\<1106\> WLSEL\<1107\> WLSEL\<1108\> WLSEL\<1109\> WLSEL\<1110\> \
 WLSEL\<1111\> WLSEL\<1112\> WLSEL\<1113\> WLSEL\<1114\> WLSEL\<1115\> \
 WLSEL\<1116\> WLSEL\<1117\> WLSEL\<1118\> WLSEL\<1119\> WLSEL\<1120\> \
 WLSEL\<1121\> WLSEL\<1122\> WLSEL\<1123\> WLSEL\<1124\> WLSEL\<1125\> \
 WLSEL\<1126\> WLSEL\<1127\> WLSEL\<1128\> WLSEL\<1129\> WLSEL\<1130\> \
 WLSEL\<1131\> WLSEL\<1132\> WLSEL\<541\> WLSEL\<542\> WLSEL\<543\> \
 WLSEL\<544\> WLSEL\<545\> WLSEL\<546\> WLSEL\<547\> WLSEL\<548\> WLSEL\<549\> \
 WLSEL\<550\> WLSEL\<551\> WLSEL\<552\> WLSEL\<553\> WLSEL\<554\> WLSEL\<555\> \
 WLSEL\<556\> WLSEL\<557\> WLSEL\<558\> WLSEL\<559\> WLSEL\<560\> WLSEL\<561\> \
 WLSEL\<562\> WLSEL\<563\> WLSEL\<564\> WLSEL\<565\> WLSEL\<566\> WLSEL\<567\> \
 WLSEL\<568\> WLSEL\<569\> WLSEL\<570\> WLSEL\<571\> WLSEL\<572\> WLSEL\<573\> \
 WLSEL\<574\> WLSEL\<575\> WLSEL\<576\> WLSEL\<577\> WLSEL\<578\> WLSEL\<579\> \
 WLSEL\<580\> WLSEL\<581\> WLSEL\<582\> WLSEL\<583\> WLSEL\<584\> WLSEL\<585\> \
 WLSEL\<586\> WLSEL\<587\> WLSEL\<588\> WLSEL\<589\> WLSEL\<590\> WLSEL\<591\> \
 WLSEL\<592\> WLSEL\<593\> WLSEL\<594\> WLSEL\<595\> WLSEL\<596\> WLSEL\<597\> \
 WLSEL\<598\> WLSEL\<599\> WLSEL\<600\> WLSEL\<601\> WLSEL\<602\> WLSEL\<603\> \
 WLSEL\<604\> WLSEL\<605\> WLSEL\<606\> WLSEL\<607\> WLSEL\<608\> WLSEL\<609\> \
 WLSEL\<610\> WLSEL\<611\> WLSEL\<612\> WLSEL\<613\> WLSEL\<614\> WLSEL\<615\> \
 WLSEL\<616\> WLSEL\<617\> WLSEL\<618\> WLSEL\<619\> WLSEL\<620\> WLSEL\<29\> \
 WLSEL\<30\> WLSEL\<31\> WLSEL\<32\> WLSEL\<33\> WLSEL\<34\> WLSEL\<35\> \
 WLSEL\<36\> WLSEL\<37\> WLSEL\<38\> WLSEL\<39\> WLSEL\<40\> WLSEL\<41\> \
 WLSEL\<42\> WLSEL\<43\> WLSEL\<44\> WLSEL\<45\> WLSEL\<46\> WLSEL\<47\> \
 WLSEL\<48\> WLSEL\<49\> WLSEL\<50\> WLSEL\<51\> WLSEL\<52\> WLSEL\<53\> \
 WLSEL\<54\> WLSEL\<55\> WLSEL\<56\> WLSEL\<57\> WLSEL\<58\> WLSEL\<59\> \
 WLSEL\<60\> WLSEL\<61\> WLSEL\<62\> WLSEL\<63\> WLSEL\<64\> WLSEL\<65\> \
 WLSEL\<66\> WLSEL\<67\> WLSEL\<68\> WLSEL\<69\> WLSEL\<70\> WLSEL\<71\> \
 WLSEL\<72\> WLSEL\<73\> WLSEL\<74\> WLSEL\<75\> WLSEL\<76\> WLSEL\<77\> \
 WLSEL\<78\> WLSEL\<79\> WLSEL\<80\> WLSEL\<81\> WLSEL\<82\> WLSEL\<83\> \
 WLSEL\<84\> WLSEL\<85\> WLSEL\<86\> WLSEL\<87\> WLSEL\<88\> WLSEL\<89\> \
 WLSEL\<90\> WLSEL\<91\> WLSEL\<92\> WLSEL\<93\> WLSEL\<94\> WLSEL\<95\> \
 WLSEL\<96\> WLSEL\<97\> WLSEL\<98\> WLSEL\<99\> WLSEL\<100\> WLSEL\<101\> \
 WLSEL\<102\> WLSEL\<103\> WLSEL\<104\> WLSEL\<105\> WLSEL\<106\> WLSEL\<107\> \
 WLSEL\<108\> WLSEL\<1536\> WLSEL\<1537\> WLSEL\<1538\> WLSEL\<1539\> \
 WLSEL\<1540\> WLSEL\<1541\> WLSEL\<1542\> WLSEL\<1543\> WLSEL\<1544\> \
 WLSEL\<1545\> WLSEL\<1546\> WLSEL\<1547\> WLSEL\<1548\> WLSEL\<1549\> \
 WLSEL\<1550\> WLSEL\<1551\> WLSEL\<1552\> WLSEL\<1553\> WLSEL\<1554\> \
 WLSEL\<1555\> WLSEL\<1556\> WLSEL\<1557\> WLSEL\<1558\> WLSEL\<1559\> \
 WLSEL\<1560\> WLSEL\<1561\> WLSEL\<1562\> WLSEL\<1563\> WLSEL\<1564\> \
 WLSEL\<1024\> WLSEL\<1025\> WLSEL\<1026\> WLSEL\<1027\> WLSEL\<1028\> \
 WLSEL\<1029\> WLSEL\<1030\> WLSEL\<1031\> WLSEL\<1032\> WLSEL\<1033\> \
 WLSEL\<1034\> WLSEL\<1035\> WLSEL\<1036\> WLSEL\<1037\> WLSEL\<1038\> \
 WLSEL\<1039\> WLSEL\<1040\> WLSEL\<1041\> WLSEL\<1042\> WLSEL\<1043\> \
 WLSEL\<1044\> WLSEL\<1045\> WLSEL\<1046\> WLSEL\<1047\> WLSEL\<1048\> \
 WLSEL\<1049\> WLSEL\<1050\> WLSEL\<1051\> WLSEL\<1052\> WLSEL\<512\> \
 WLSEL\<513\> WLSEL\<514\> WLSEL\<515\> WLSEL\<516\> WLSEL\<517\> WLSEL\<518\> \
 WLSEL\<519\> WLSEL\<520\> WLSEL\<521\> WLSEL\<522\> WLSEL\<523\> WLSEL\<524\> \
 WLSEL\<525\> WLSEL\<526\> WLSEL\<527\> WLSEL\<528\> WLSEL\<529\> WLSEL\<530\> \
 WLSEL\<531\> WLSEL\<532\> WLSEL\<533\> WLSEL\<534\> WLSEL\<535\> WLSEL\<536\> \
 WLSEL\<537\> WLSEL\<538\> WLSEL\<539\> WLSEL\<540\> WLSEL\<0\> WLSEL\<1\> \
 WLSEL\<2\> WLSEL\<3\> WLSEL\<4\> WLSEL\<5\> WLSEL\<6\> WLSEL\<7\> WLSEL\<8\> \
 WLSEL\<9\> WLSEL\<10\> WLSEL\<11\> WLSEL\<12\> WLSEL\<13\> WLSEL\<14\> \
 WLSEL\<15\> WLSEL\<16\> WLSEL\<17\> WLSEL\<18\> WLSEL\<19\> WLSEL\<20\> \
 WLSEL\<21\> WLSEL\<22\> WLSEL\<23\> WLSEL\<24\> WLSEL\<25\> WLSEL\<26\> \
 WLSEL\<27\> WLSEL\<28\> )
// 
// WLSEL<28>	WLSEL<28>
// WLSEL<27>	WLSEL<27>
// WLSEL<26>	WLSEL<26>
// WLSEL<25>	WLSEL<25>
// WLSEL<24>	WLSEL<24>
// WLSEL<23>	WLSEL<23>
// WLSEL<22>	WLSEL<22>
// WLSEL<21>	WLSEL<21>
// WLSEL<20>	WLSEL<20>
// WLSEL<19>	WLSEL<19>
// WLSEL<18>	WLSEL<18>
// WLSEL<17>	WLSEL<17>
// WLSEL<16>	WLSEL<16>
// WLSEL<15>	WLSEL<15>
// WLSEL<14>	WLSEL<14>
// WLSEL<13>	WLSEL<13>
// WLSEL<12>	WLSEL<12>
// WLSEL<11>	WLSEL<11>
// WLSEL<10>	WLSEL<10>
// WLSEL<9>	WLSEL<9>
// WLSEL<8>	WLSEL<8>
// WLSEL<7>	WLSEL<7>
// WLSEL<6>	WLSEL<6>
// WLSEL<5>	WLSEL<5>
// WLSEL<4>	WLSEL<4>
// WLSEL<3>	WLSEL<3>
// WLSEL<2>	WLSEL<2>
// WLSEL<1>	WLSEL<1>
// WLSEL<0>	WLSEL<0>
// WLSEL<540>	WLSEL<540>
// WLSEL<539>	WLSEL<539>
// WLSEL<538>	WLSEL<538>
// WLSEL<537>	WLSEL<537>