// File: /home/edauser0/ayigit/RowDecoder_Project/CDS_VISIO/project_pex/Post_L8_256t8_Text/spectreText/spectre.scs.pex
// Created: Tue Dec 21 11:41:04 2021
// Program "Calibre xRC"
// Version "v2020.1_17.9"
// Nominal Temperature: 25C
// Circuit Temperature: 25C
// 
simulator lang=spectre
subckt PM_POST_L8_256T8_PEX2\%SEL7\<1\> ( 1 2 3 4 5 6 7 8 9 10 11 12 13 14 15 \
 16 17 18 19 20 21 22 23 24 25 26 27 28 29 30 31 32 33 34 35 36 37 38 39 40 41 \
 42 43 44 45 46 47 48 49 50 51 52 53 54 55 56 57 58 59 60 61 62 63 64 65 66 67 \
 68 69 70 71 72 73 74 75 76 77 78 79 80 81 82 83 84 85 86 87 88 89 90 91 92 93 \
 94 95 96 97 98 99 100 101 102 103 104 105 106 107 108 109 110 111 112 113 114 \
 115 116 117 118 119 120 121 122 123 124 125 126 380 383 386 389 392 395 398 \
 401 404 407 410 413 416 419 422 425 428 431 434 437 440 443 446 449 452 455 \
 458 461 464 467 470 473 476 479 482 485 488 491 494 497 500 503 506 509 512 \
 515 518 521 524 527 530 533 536 538 540 543 546 549 552 555 558 561 564 567 \
 570 573 576 579 582 585 588 591 594 597 600 603 606 609 612 615 618 621 624 \
 627 630 633 636 639 642 645 648 651 654 657 660 663 666 669 672 675 678 681 \
 684 687 690 693 696 699 702 705 708 711 714 717 720 723 726 729 731 733 736 \
 739 742 745 748 751 754 757 760 763 )
c0 ( 124 0 ) capacitor c=0.182554f
c1 ( 119 0 ) capacitor c=0.182554f
c2 ( 115 0 ) capacitor c=0.182554f
c3 ( 111 0 ) capacitor c=0.182554f
c4 ( 99 0 ) capacitor c=0.182554f
c5 ( 77 0 ) capacitor c=0.182554f
c6 ( 73 0 ) capacitor c=0.182554f
c7 ( 60 0 ) capacitor c=0.182554f
c8 ( 54 0 ) capacitor c=0.182554f
c9 ( 37 0 ) capacitor c=0.182554f
c10 ( 36 0 ) capacitor c=0.182554f
c11 ( 32 0 ) capacitor c=0.182554f
c12 ( 18 0 ) capacitor c=0.182554f
c13 ( 17 0 ) capacitor c=0.182554f
c14 ( 15 0 ) capacitor c=0.182554f
c15 ( 11 0 ) capacitor c=0.182554f
c16 ( 126 0 ) capacitor c=0.365108f
c17 ( 118 0 ) capacitor c=0.182554f
c18 ( 116 0 ) capacitor c=0.182554f
c19 ( 114 0 ) capacitor c=0.182554f
c20 ( 112 0 ) capacitor c=0.182554f
c21 ( 98 0 ) capacitor c=0.182554f
c22 ( 96 0 ) capacitor c=0.182554f
c23 ( 92 0 ) capacitor c=0.182554f
c24 ( 88 0 ) capacitor c=0.188031f
c25 ( 84 0 ) capacitor c=0.188031f
c26 ( 82 0 ) capacitor c=0.188031f
c27 ( 76 0 ) capacitor c=0.182554f
c28 ( 74 0 ) capacitor c=0.182554f
c29 ( 70 0 ) capacitor c=0.188031f
c30 ( 68 0 ) capacitor c=0.188031f
c31 ( 64 0 ) capacitor c=0.188031f
c32 ( 58 0 ) capacitor c=0.365108f
c33 ( 40 0 ) capacitor c=0.365108f
c34 ( 38 0 ) capacitor c=0.365108f
c35 ( 34 0 ) capacitor c=0.365108f
c36 ( 19 0 ) capacitor c=0.182554f
c37 ( 13 0 ) capacitor c=0.365108f
c38 ( 9 0 ) capacitor c=0.188031f
c39 ( 123 0 ) capacitor c=0.188031f
c40 ( 121 0 ) capacitor c=0.188031f
c41 ( 107 0 ) capacitor c=0.188031f
c42 ( 103 0 ) capacitor c=0.188031f
c43 ( 89 0 ) capacitor c=0.188031f
c44 ( 81 0 ) capacitor c=0.188031f
c45 ( 69 0 ) capacitor c=0.188031f
c46 ( 65 0 ) capacitor c=0.188031f
c47 ( 61 0 ) capacitor c=0.188031f
c48 ( 50 0 ) capacitor c=0.188031f
c49 ( 48 0 ) capacitor c=0.376061f
c50 ( 44 0 ) capacitor c=0.376061f
c51 ( 30 0 ) capacitor c=0.376061f
c52 ( 28 0 ) capacitor c=0.188031f
c53 ( 27 0 ) capacitor c=0.188031f
c54 ( 26 0 ) capacitor c=0.376061f
c55 ( 24 0 ) capacitor c=0.188031f
c56 ( 22 0 ) capacitor c=0.376061f
c57 ( 7 0 ) capacitor c=0.376061f
c58 ( 5 0 ) capacitor c=0.376061f
c59 ( 3 0 ) capacitor c=0.376061f
c60 ( 2 0 ) capacitor c=0.188031f
c61 ( 122 0 ) capacitor c=0.188031f
c62 ( 117 0 ) capacitor c=0.365108f
c63 ( 113 0 ) capacitor c=0.365108f
c64 ( 109 0 ) capacitor c=0.376061f
c65 ( 105 0 ) capacitor c=0.376061f
c66 ( 101 0 ) capacitor c=0.376061f
c67 ( 97 0 ) capacitor c=0.365108f
c68 ( 93 0 ) capacitor c=0.365108f
c69 ( 91 0 ) capacitor c=0.365108f
c70 ( 87 0 ) capacitor c=0.376061f
c71 ( 83 0 ) capacitor c=0.373323f
c72 ( 79 0 ) capacitor c=0.365108f
c73 ( 75 0 ) capacitor c=0.365108f
c74 ( 71 0 ) capacitor c=0.365108f
c75 ( 67 0 ) capacitor c=0.376061f
c76 ( 63 0 ) capacitor c=0.376061f
c77 ( 59 0 ) capacitor c=0.182554f
c78 ( 51 0 ) capacitor c=0.182554f
c79 ( 47 0 ) capacitor c=0.188031f
c80 ( 43 0 ) capacitor c=0.188031f
c81 ( 41 0 ) capacitor c=0.188031f
c82 ( 39 0 ) capacitor c=0.182554f
c83 ( 35 0 ) capacitor c=0.365108f
c84 ( 25 0 ) capacitor c=0.376061f
c85 ( 21 0 ) capacitor c=0.188031f
c86 ( 16 0 ) capacitor c=0.182554f
c87 ( 14 0 ) capacitor c=0.182554f
c88 ( 12 0 ) capacitor c=0.365108f
c89 ( 8 0 ) capacitor c=0.376061f
c90 ( 4 0 ) capacitor c=0.188031f
c91 ( 538 0 ) capacitor c=0.188031f
c92 ( 1 0 ) capacitor c=2.87264f
r93 (  731 733 ) resistor r=1.26
r94 (  538 540 ) resistor r=1.4025
r95 (  126 579 ) resistor r=1.26
r96 (  125 576 ) resistor r=1.26
r97 (  124 573 ) resistor r=1.26
r98 (  123 386 ) resistor r=1.4025
r99 (  122 383 ) resistor r=1.4025
r100 (  121 380 ) resistor r=1.4025
r101 (  120 609 ) resistor r=1.26
r102 (  119 606 ) resistor r=1.26
r103 (  118 603 ) resistor r=1.26
r104 (  117 600 ) resistor r=1.26
r105 (  116 597 ) resistor r=1.26
r106 (  115 594 ) resistor r=1.26
r107 (  114 591 ) resistor r=1.26
r108 (  113 588 ) resistor r=1.26
r109 (  112 585 ) resistor r=1.26
r110 (  111 582 ) resistor r=1.26
r111 (  110 416 ) resistor r=1.4025
r112 (  109 413 ) resistor r=1.4025
r113 (  108 410 ) resistor r=1.4025
r114 (  107 407 ) resistor r=1.4025
r115 (  106 404 ) resistor r=1.4025
r116 (  105 401 ) resistor r=1.4025
r117 (  104 398 ) resistor r=1.4025
r118 (  103 395 ) resistor r=1.4025
r119 (  102 392 ) resistor r=1.4025
r120 (  101 389 ) resistor r=1.4025
r121 (  100 639 ) resistor r=1.26
r122 (  99 636 ) resistor r=1.26
r123 (  98 633 ) resistor r=1.26
r124 (  97 630 ) resistor r=1.26
r125 (  96 627 ) resistor r=1.26
r126 (  95 624 ) resistor r=1.26
r127 (  94 621 ) resistor r=1.26
r128 (  93 618 ) resistor r=1.26
r129 (  92 615 ) resistor r=1.26
r130 (  91 612 ) resistor r=1.26
r131 (  90 446 ) resistor r=1.4025
r132 (  89 443 ) resistor r=1.4025
r133 (  88 440 ) resistor r=1.4025
r134 (  87 437 ) resistor r=1.4025
r135 (  86 434 ) resistor r=1.4025
r136 (  85 431 ) resistor r=1.4025
r137 (  84 428 ) resistor r=1.4025
r138 (  83 425 ) resistor r=1.4025
r139 (  82 422 ) resistor r=1.4025
r140 (  81 419 ) resistor r=1.4025
r141 (  80 669 ) resistor r=1.26
r142 (  79 666 ) resistor r=1.26
r143 (  78 663 ) resistor r=1.26
r144 (  77 660 ) resistor r=1.26
r145 (  76 657 ) resistor r=1.26
r146 (  75 654 ) resistor r=1.26
r147 (  74 651 ) resistor r=1.26
r148 (  73 648 ) resistor r=1.26
r149 (  72 645 ) resistor r=1.26
r150 (  71 642 ) resistor r=1.26
r151 (  70 476 ) resistor r=1.4025
r152 (  69 473 ) resistor r=1.4025
r153 (  68 470 ) resistor r=1.4025
r154 (  67 467 ) resistor r=1.4025
r155 (  66 464 ) resistor r=1.4025
r156 (  65 461 ) resistor r=1.4025
r157 (  64 458 ) resistor r=1.4025
r158 (  63 455 ) resistor r=1.4025
r159 (  62 452 ) resistor r=1.4025
r160 (  61 449 ) resistor r=1.4025
r161 (  60 699 ) resistor r=1.26
r162 (  59 696 ) resistor r=1.26
r163 (  58 693 ) resistor r=1.26
r164 (  57 690 ) resistor r=1.26
r165 (  56 687 ) resistor r=1.26
r166 (  55 684 ) resistor r=1.26
r167 (  54 681 ) resistor r=1.26
r168 (  53 678 ) resistor r=1.26
r169 (  52 675 ) resistor r=1.26
r170 (  51 672 ) resistor r=1.26
r171 (  50 506 ) resistor r=1.4025
r172 (  49 503 ) resistor r=1.4025
r173 (  48 500 ) resistor r=1.4025
r174 (  47 497 ) resistor r=1.4025
r175 (  46 494 ) resistor r=1.4025
r176 (  45 491 ) resistor r=1.4025
r177 (  44 488 ) resistor r=1.4025
r178 (  43 485 ) resistor r=1.4025
r179 (  42 482 ) resistor r=1.4025
r180 (  41 479 ) resistor r=1.4025
r181 (  40 729 ) resistor r=1.26
r182 (  39 726 ) resistor r=1.26
r183 (  38 723 ) resistor r=1.26
r184 (  37 720 ) resistor r=1.26
r185 (  36 717 ) resistor r=1.26
r186 (  35 714 ) resistor r=1.26
r187 (  34 711 ) resistor r=1.26
r188 (  33 708 ) resistor r=1.26
r189 (  32 705 ) resistor r=1.26
r190 (  31 702 ) resistor r=1.26
r191 (  30 536 ) resistor r=1.4025
r192 (  29 533 ) resistor r=1.4025
r193 (  28 530 ) resistor r=1.4025
r194 (  27 527 ) resistor r=1.4025
r195 (  26 524 ) resistor r=1.4025
r196 (  25 521 ) resistor r=1.4025
r197 (  24 518 ) resistor r=1.4025
r198 (  23 515 ) resistor r=1.4025
r199 (  22 512 ) resistor r=1.4025
r200 (  21 509 ) resistor r=1.4025
r201 (  20 763 ) resistor r=0.960987
r202 (  19 760 ) resistor r=1.26
r203 (  18 757 ) resistor r=1.26
r204 (  17 754 ) resistor r=1.26
r205 (  16 751 ) resistor r=1.26
r206 (  15 748 ) resistor r=1.26
r207 (  14 745 ) resistor r=1.26
r208 (  13 742 ) resistor r=1.26
r209 (  12 739 ) resistor r=1.26
r210 (  11 736 ) resistor r=1.26
r211 (  10 570 ) resistor r=1.06967
r212 (  9 567 ) resistor r=1.4025
r213 (  8 564 ) resistor r=1.4025
r214 (  7 561 ) resistor r=1.4025
r215 (  6 558 ) resistor r=1.4025
r216 (  5 555 ) resistor r=1.4025
r217 (  4 552 ) resistor r=1.4025
r218 (  3 549 ) resistor r=1.4025
r219 (  2 546 ) resistor r=1.4025
r220 (  1 543 ) resistor r=1.4025
ends PM_POST_L8_256T8_PEX2\%SEL7\<1\>

subckt PM_POST_L8_256T8_PEX2\%SEL0\<0\> ( 1 2 3 4 5 6 7 8 9 10 11 12 13 14 15 \
 16 17 18 19 20 21 22 23 24 25 26 27 28 29 30 31 32 33 34 35 36 37 38 39 40 41 \
 42 43 44 45 46 47 48 49 50 51 52 53 54 55 56 57 58 59 60 61 62 63 64 65 66 67 \
 68 69 70 71 72 73 74 75 76 77 78 79 80 81 82 83 84 85 86 87 88 89 90 91 92 93 \
 94 95 96 97 98 99 100 101 102 103 104 105 106 107 108 109 110 111 112 113 114 \
 115 116 117 118 119 120 121 122 123 124 125 126 127 128 386 389 392 395 398 \
 401 404 407 410 413 416 419 422 425 428 431 434 437 440 443 446 449 452 455 \
 458 461 464 467 470 473 476 479 482 485 488 491 494 497 500 503 506 509 512 \
 515 518 521 524 527 530 533 536 539 542 545 548 551 554 557 560 563 566 569 \
 572 575 578 581 584 587 590 593 596 599 602 605 608 611 614 617 620 623 626 \
 629 632 635 638 641 644 647 650 653 656 659 662 665 668 671 674 677 680 683 \
 686 689 692 695 698 701 704 707 710 713 716 719 722 725 728 731 734 737 740 \
 743 746 749 752 755 758 761 764 767 )
c0 ( 16 0 ) capacitor c=0.182554f
c1 ( 11 0 ) capacitor c=0.182554f
c2 ( 128 0 ) capacitor c=0.182554f
c3 ( 113 0 ) capacitor c=0.182554f
c4 ( 100 0 ) capacitor c=0.182554f
c5 ( 99 0 ) capacitor c=0.182554f
c6 ( 97 0 ) capacitor c=0.182554f
c7 ( 96 0 ) capacitor c=0.182554f
c8 ( 78 0 ) capacitor c=0.182554f
c9 ( 76 0 ) capacitor c=0.182554f
c10 ( 74 0 ) capacitor c=0.182554f
c11 ( 73 0 ) capacitor c=0.182554f
c12 ( 51 0 ) capacitor c=0.182554f
c13 ( 35 0 ) capacitor c=0.182554f
c14 ( 31 0 ) capacitor c=0.182554f
c15 ( 15 0 ) capacitor c=0.182554f
c16 ( 13 0 ) capacitor c=0.182554f
c17 ( 127 0 ) capacitor c=0.182554f
c18 ( 125 0 ) capacitor c=0.182554f
c19 ( 123 0 ) capacitor c=0.182554f
c20 ( 121 0 ) capacitor c=0.188031f
c21 ( 120 0 ) capacitor c=0.365108f
c22 ( 118 0 ) capacitor c=0.182554f
c23 ( 116 0 ) capacitor c=0.182554f
c24 ( 80 0 ) capacitor c=0.182554f
c25 ( 75 0 ) capacitor c=0.365108f
c26 ( 65 0 ) capacitor c=0.188031f
c27 ( 61 0 ) capacitor c=0.188031f
c28 ( 59 0 ) capacitor c=0.182554f
c29 ( 54 0 ) capacitor c=0.365108f
c30 ( 52 0 ) capacitor c=0.365108f
c31 ( 49 0 ) capacitor c=0.182554f
c32 ( 47 0 ) capacitor c=0.182554f
c33 ( 40 0 ) capacitor c=0.365108f
c34 ( 38 0 ) capacitor c=0.365108f
c35 ( 19 0 ) capacitor c=0.182554f
c36 ( 17 0 ) capacitor c=0.182554f
c37 ( 14 0 ) capacitor c=0.365108f
c38 ( 12 0 ) capacitor c=0.365108f
c39 ( 126 0 ) capacitor c=0.365108f
c40 ( 117 0 ) capacitor c=0.182554f
c41 ( 112 0 ) capacitor c=0.365108f
c42 ( 102 0 ) capacitor c=0.188031f
c43 ( 98 0 ) capacitor c=0.365108f
c44 ( 95 0 ) capacitor c=0.182554f
c45 ( 91 0 ) capacitor c=0.182554f
c46 ( 88 0 ) capacitor c=0.182554f
c47 ( 83 0 ) capacitor c=0.188031f
c48 ( 81 0 ) capacitor c=0.188031f
c49 ( 79 0 ) capacitor c=0.182554f
c50 ( 77 0 ) capacitor c=0.365108f
c51 ( 72 0 ) capacitor c=0.182554f
c52 ( 69 0 ) capacitor c=0.182554f
c53 ( 58 0 ) capacitor c=0.182554f
c54 ( 53 0 ) capacitor c=0.365108f
c55 ( 48 0 ) capacitor c=0.182554f
c56 ( 45 0 ) capacitor c=0.188031f
c57 ( 39 0 ) capacitor c=0.365108f
c58 ( 32 0 ) capacitor c=0.182554f
c59 ( 29 0 ) capacitor c=0.182554f
c60 ( 27 0 ) capacitor c=0.182554f
c61 ( 22 0 ) capacitor c=0.188031f
c62 ( 20 0 ) capacitor c=0.182554f
c63 ( 18 0 ) capacitor c=0.182554f
c64 ( 6 0 ) capacitor c=0.182554f
c65 ( 122 0 ) capacitor c=0.188031f
c66 ( 109 0 ) capacitor c=0.182554f
c67 ( 107 0 ) capacitor c=0.365108f
c68 ( 105 0 ) capacitor c=0.376061f
c69 ( 103 0 ) capacitor c=0.188031f
c70 ( 101 0 ) capacitor c=0.376061f
c71 ( 89 0 ) capacitor c=0.365108f
c72 ( 87 0 ) capacitor c=0.365108f
c73 ( 86 0 ) capacitor c=0.182554f
c74 ( 84 0 ) capacitor c=0.376061f
c75 ( 82 0 ) capacitor c=0.373323f
c76 ( 70 0 ) capacitor c=0.182554f
c77 ( 68 0 ) capacitor c=0.365108f
c78 ( 66 0 ) capacitor c=0.182554f
c79 ( 64 0 ) capacitor c=0.188031f
c80 ( 62 0 ) capacitor c=0.188031f
c81 ( 50 0 ) capacitor c=0.182554f
c82 ( 46 0 ) capacitor c=0.365108f
c83 ( 44 0 ) capacitor c=0.188031f
c84 ( 42 0 ) capacitor c=0.376061f
c85 ( 41 0 ) capacitor c=0.376061f
c86 ( 30 0 ) capacitor c=0.182554f
c87 ( 28 0 ) capacitor c=0.182554f
c88 ( 23 0 ) capacitor c=0.188031f
c89 ( 21 0 ) capacitor c=0.188031f
c90 ( 9 0 ) capacitor c=0.365108f
c91 ( 8 0 ) capacitor c=0.365108f
c92 ( 7 0 ) capacitor c=0.365108f
c93 ( 5 0 ) capacitor c=0.376061f
c94 ( 3 0 ) capacitor c=0.188031f
c95 ( 1 0 ) capacitor c=2.90465f
r96 (  128 677 ) resistor r=1.4625
r97 (  127 674 ) resistor r=1.11543
r98 (  126 581 ) resistor r=1.2975
r99 (  125 578 ) resistor r=0.989587
r100 (  124 485 ) resistor r=1.275
r101 (  123 482 ) resistor r=0.972427
r102 (  122 389 ) resistor r=1.4175
r103 (  121 386 ) resistor r=1.08111
r104 (  120 692 ) resistor r=1.4625
r105 (  119 689 ) resistor r=1.4625
r106 (  118 686 ) resistor r=1.4625
r107 (  117 683 ) resistor r=1.4625
r108 (  116 680 ) resistor r=1.4625
r109 (  115 596 ) resistor r=1.2975
r110 (  114 593 ) resistor r=1.2975
r111 (  113 590 ) resistor r=1.2975
r112 (  112 587 ) resistor r=1.2975
r113 (  111 584 ) resistor r=1.2975
r114 (  110 500 ) resistor r=1.275
r115 (  109 497 ) resistor r=1.275
r116 (  108 494 ) resistor r=1.275
r117 (  107 491 ) resistor r=1.275
r118 (  106 488 ) resistor r=1.275
r119 (  105 404 ) resistor r=1.4175
r120 (  104 401 ) resistor r=1.4175
r121 (  103 398 ) resistor r=1.4175
r122 (  102 395 ) resistor r=1.4175
r123 (  101 392 ) resistor r=1.4175
r124 (  100 707 ) resistor r=1.4625
r125 (  99 704 ) resistor r=1.4625
r126 (  98 701 ) resistor r=1.4625
r127 (  97 698 ) resistor r=1.4625
r128 (  96 695 ) resistor r=1.4625
r129 (  95 611 ) resistor r=1.2975
r130 (  94 608 ) resistor r=1.2975
r131 (  93 605 ) resistor r=1.2975
r132 (  92 602 ) resistor r=1.2975
r133 (  91 599 ) resistor r=1.2975
r134 (  90 515 ) resistor r=1.275
r135 (  89 512 ) resistor r=1.275
r136 (  88 509 ) resistor r=1.275
r137 (  87 506 ) resistor r=1.275
r138 (  86 503 ) resistor r=1.275
r139 (  85 419 ) resistor r=1.4175
r140 (  84 416 ) resistor r=1.4175
r141 (  83 413 ) resistor r=1.4175
r142 (  82 410 ) resistor r=1.4175
r143 (  81 407 ) resistor r=1.4175
r144 (  80 722 ) resistor r=1.4625
r145 (  79 719 ) resistor r=1.4625
r146 (  78 716 ) resistor r=1.4625
r147 (  77 713 ) resistor r=1.4625
r148 (  76 710 ) resistor r=1.4625
r149 (  75 626 ) resistor r=1.2975
r150 (  74 623 ) resistor r=1.2975
r151 (  73 620 ) resistor r=1.2975
r152 (  72 617 ) resistor r=1.2975
r153 (  71 614 ) resistor r=1.2975
r154 (  70 530 ) resistor r=1.275
r155 (  69 527 ) resistor r=1.275
r156 (  68 524 ) resistor r=1.275
r157 (  67 521 ) resistor r=1.275
r158 (  66 518 ) resistor r=1.275
r159 (  65 434 ) resistor r=1.4175
r160 (  64 431 ) resistor r=1.4175
r161 (  63 428 ) resistor r=1.4175
r162 (  62 425 ) resistor r=1.4175
r163 (  61 422 ) resistor r=1.4175
r164 (  60 737 ) resistor r=1.4625
r165 (  59 734 ) resistor r=1.4625
r166 (  58 731 ) resistor r=1.4625
r167 (  57 728 ) resistor r=1.4625
r168 (  56 725 ) resistor r=1.4625
r169 (  55 641 ) resistor r=1.2975
r170 (  54 638 ) resistor r=1.2975
r171 (  53 635 ) resistor r=1.2975
r172 (  52 632 ) resistor r=1.2975
r173 (  51 629 ) resistor r=1.2975
r174 (  50 545 ) resistor r=1.275
r175 (  49 542 ) resistor r=1.275
r176 (  48 539 ) resistor r=1.275
r177 (  47 536 ) resistor r=1.275
r178 (  46 533 ) resistor r=1.275
r179 (  45 449 ) resistor r=1.4175
r180 (  44 446 ) resistor r=1.4175
r181 (  43 443 ) resistor r=1.4175
r182 (  42 440 ) resistor r=1.4175
r183 (  41 437 ) resistor r=1.4175
r184 (  40 752 ) resistor r=1.4625
r185 (  39 749 ) resistor r=1.4625
r186 (  38 746 ) resistor r=1.4625
r187 (  37 743 ) resistor r=1.4625
r188 (  36 740 ) resistor r=1.4625
r189 (  35 656 ) resistor r=1.2975
r190 (  34 653 ) resistor r=1.2975
r191 (  33 650 ) resistor r=1.2975
r192 (  32 647 ) resistor r=1.2975
r193 (  31 644 ) resistor r=1.2975
r194 (  30 560 ) resistor r=1.275
r195 (  29 557 ) resistor r=1.275
r196 (  28 554 ) resistor r=1.275
r197 (  27 551 ) resistor r=1.275
r198 (  26 548 ) resistor r=1.275
r199 (  25 464 ) resistor r=1.4175
r200 (  24 461 ) resistor r=1.4175
r201 (  23 458 ) resistor r=1.4175
r202 (  22 455 ) resistor r=1.4175
r203 (  21 452 ) resistor r=1.4175
r204 (  20 767 ) resistor r=1.4625
r205 (  19 764 ) resistor r=1.4625
r206 (  18 761 ) resistor r=1.4625
r207 (  17 758 ) resistor r=1.4625
r208 (  16 755 ) resistor r=1.4625
r209 (  15 671 ) resistor r=1.2975
r210 (  14 668 ) resistor r=1.2975
r211 (  13 665 ) resistor r=1.2975
r212 (  12 662 ) resistor r=1.2975
r213 (  11 659 ) resistor r=1.2975
r214 (  10 575 ) resistor r=1.275
r215 (  9 572 ) resistor r=1.275
r216 (  8 569 ) resistor r=1.275
r217 (  7 566 ) resistor r=1.275
r218 (  6 563 ) resistor r=1.275
r219 (  5 479 ) resistor r=1.4175
r220 (  4 476 ) resistor r=1.4175
r221 (  3 473 ) resistor r=1.4175
r222 (  2 470 ) resistor r=1.4175
r223 (  1 467 ) resistor r=1.4175
ends PM_POST_L8_256T8_PEX2\%SEL0\<0\>

subckt PM_POST_L8_256T8_PEX2\%SEL1\<1\> ( 1 2 3 4 5 6 7 8 9 10 11 12 13 14 15 \
 16 17 18 19 20 21 22 23 24 25 26 27 28 29 30 31 32 33 34 35 36 37 38 39 40 41 \
 42 43 44 45 46 47 48 49 50 51 52 53 54 55 56 57 58 59 60 61 62 63 64 65 66 67 \
 68 69 70 71 72 73 74 75 76 77 78 79 80 81 82 83 84 85 86 87 88 89 90 91 92 93 \
 94 95 96 97 98 99 100 101 102 103 104 105 106 107 108 109 110 111 112 113 114 \
 115 116 117 118 119 120 121 122 123 124 125 126 127 128 386 389 392 395 398 \
 401 404 407 410 413 416 419 422 425 428 431 434 437 440 443 446 449 452 455 \
 458 461 464 467 470 473 476 479 482 485 488 491 494 497 500 503 506 509 512 \
 515 518 521 524 527 530 533 536 539 542 545 548 551 554 557 560 563 566 569 \
 572 575 578 581 584 587 590 593 596 599 602 605 608 611 614 617 620 623 626 \
 629 632 635 638 641 644 647 650 653 656 659 662 665 668 671 674 677 680 683 \
 686 689 692 695 698 701 704 707 710 713 716 719 722 725 728 731 734 737 740 \
 743 746 749 752 755 758 761 764 767 )
c0 ( 128 0 ) capacitor c=0.182554f
c1 ( 127 0 ) capacitor c=0.182554f
c2 ( 123 0 ) capacitor c=0.182554f
c3 ( 122 0 ) capacitor c=0.188031f
c4 ( 115 0 ) capacitor c=0.182554f
c5 ( 108 0 ) capacitor c=0.188031f
c6 ( 107 0 ) capacitor c=0.188031f
c7 ( 90 0 ) capacitor c=0.182554f
c8 ( 69 0 ) capacitor c=0.182554f
c9 ( 63 0 ) capacitor c=0.182554f
c10 ( 60 0 ) capacitor c=0.182554f
c11 ( 59 0 ) capacitor c=0.182554f
c12 ( 54 0 ) capacitor c=0.182554f
c13 ( 53 0 ) capacitor c=0.182554f
c14 ( 48 0 ) capacitor c=0.182554f
c15 ( 46 0 ) capacitor c=0.188031f
c16 ( 40 0 ) capacitor c=0.182554f
c17 ( 27 0 ) capacitor c=0.188031f
c18 ( 126 0 ) capacitor c=0.365108f
c19 ( 124 0 ) capacitor c=0.365108f
c20 ( 120 0 ) capacitor c=0.182554f
c21 ( 116 0 ) capacitor c=0.365108f
c22 ( 114 0 ) capacitor c=0.182554f
c23 ( 110 0 ) capacitor c=0.182554f
c24 ( 106 0 ) capacitor c=0.188031f
c25 ( 104 0 ) capacitor c=0.182554f
c26 ( 100 0 ) capacitor c=0.182554f
c27 ( 98 0 ) capacitor c=0.182554f
c28 ( 92 0 ) capacitor c=0.182554f
c29 ( 88 0 ) capacitor c=0.182554f
c30 ( 84 0 ) capacitor c=0.376061f
c31 ( 80 0 ) capacitor c=0.182554f
c32 ( 78 0 ) capacitor c=0.365108f
c33 ( 74 0 ) capacitor c=0.365108f
c34 ( 70 0 ) capacitor c=0.182554f
c35 ( 64 0 ) capacitor c=0.182554f
c36 ( 52 0 ) capacitor c=0.182554f
c37 ( 50 0 ) capacitor c=0.182554f
c38 ( 42 0 ) capacitor c=0.188031f
c39 ( 38 0 ) capacitor c=0.182554f
c40 ( 32 0 ) capacitor c=0.365108f
c41 ( 28 0 ) capacitor c=0.188031f
c42 ( 16 0 ) capacitor c=0.182554f
c43 ( 14 0 ) capacitor c=0.182554f
c44 ( 12 0 ) capacitor c=0.182554f
c45 ( 6 0 ) capacitor c=0.188031f
c46 ( 4 0 ) capacitor c=0.188031f
c47 ( 103 0 ) capacitor c=0.182554f
c48 ( 99 0 ) capacitor c=0.182554f
c49 ( 91 0 ) capacitor c=0.182554f
c50 ( 87 0 ) capacitor c=0.182554f
c51 ( 82 0 ) capacitor c=0.376061f
c52 ( 75 0 ) capacitor c=0.182554f
c53 ( 44 0 ) capacitor c=0.376061f
c54 ( 43 0 ) capacitor c=0.188031f
c55 ( 34 0 ) capacitor c=0.365108f
c56 ( 30 0 ) capacitor c=0.182554f
c57 ( 26 0 ) capacitor c=0.188031f
c58 ( 24 0 ) capacitor c=0.182554f
c59 ( 20 0 ) capacitor c=0.182554f
c60 ( 18 0 ) capacitor c=0.182554f
c61 ( 17 0 ) capacitor c=0.182554f
c62 ( 13 0 ) capacitor c=0.182554f
c63 ( 11 0 ) capacitor c=0.182554f
c64 ( 125 0 ) capacitor c=0.365108f
c65 ( 117 0 ) capacitor c=0.365108f
c66 ( 113 0 ) capacitor c=0.365108f
c67 ( 109 0 ) capacitor c=0.365108f
c68 ( 105 0 ) capacitor c=0.376061f
c69 ( 101 0 ) capacitor c=0.182554f
c70 ( 97 0 ) capacitor c=0.365108f
c71 ( 93 0 ) capacitor c=0.365108f
c72 ( 89 0 ) capacitor c=0.182554f
c73 ( 83 0 ) capacitor c=0.188031f
c74 ( 81 0 ) capacitor c=0.376061f
c75 ( 79 0 ) capacitor c=0.365108f
c76 ( 77 0 ) capacitor c=0.365108f
c77 ( 73 0 ) capacitor c=0.182554f
c78 ( 71 0 ) capacitor c=0.365108f
c79 ( 61 0 ) capacitor c=0.365108f
c80 ( 55 0 ) capacitor c=0.365108f
c81 ( 49 0 ) capacitor c=0.365108f
c82 ( 47 0 ) capacitor c=0.182554f
c83 ( 45 0 ) capacitor c=0.376061f
c84 ( 41 0 ) capacitor c=0.376061f
c85 ( 39 0 ) capacitor c=0.182554f
c86 ( 33 0 ) capacitor c=0.182554f
c87 ( 31 0 ) capacitor c=0.365108f
c88 ( 29 0 ) capacitor c=0.365108f
c89 ( 25 0 ) capacitor c=0.188031f
c90 ( 23 0 ) capacitor c=0.182554f
c91 ( 21 0 ) capacitor c=0.365108f
c92 ( 9 0 ) capacitor c=0.365108f
c93 ( 7 0 ) capacitor c=0.182554f
c94 ( 5 0 ) capacitor c=0.376061f
c95 ( 1 0 ) capacitor c=2.81106f
r96 (  128 677 ) resistor r=1.4475
r97 (  127 674 ) resistor r=1.4475
r98 (  126 581 ) resistor r=1.2825
r99 (  125 578 ) resistor r=1.2825
r100 (  124 485 ) resistor r=1.26
r101 (  123 482 ) resistor r=1.26
r102 (  122 389 ) resistor r=1.4025
r103 (  121 386 ) resistor r=1.4025
r104 (  120 689 ) resistor r=1.4475
r105 (  119 686 ) resistor r=1.4475
r106 (  118 683 ) resistor r=1.4475
r107 (  117 680 ) resistor r=1.4475
r108 (  116 593 ) resistor r=1.2825
r109 (  115 590 ) resistor r=1.2825
r110 (  114 587 ) resistor r=1.2825
r111 (  113 584 ) resistor r=1.2825
r112 (  112 497 ) resistor r=1.26
r113 (  111 494 ) resistor r=1.26
r114 (  110 491 ) resistor r=1.26
r115 (  109 488 ) resistor r=1.26
r116 (  108 401 ) resistor r=1.4025
r117 (  107 398 ) resistor r=1.4025
r118 (  106 395 ) resistor r=1.4025
r119 (  105 392 ) resistor r=1.4025
r120 (  104 707 ) resistor r=1.4475
r121 (  103 704 ) resistor r=1.4475
r122 (  102 701 ) resistor r=1.4475
r123 (  101 698 ) resistor r=1.4475
r124 (  100 695 ) resistor r=1.4475
r125 (  99 692 ) resistor r=1.4475
r126 (  98 611 ) resistor r=1.2825
r127 (  97 608 ) resistor r=1.2825
r128 (  96 605 ) resistor r=1.2825
r129 (  95 602 ) resistor r=1.2825
r130 (  94 599 ) resistor r=1.2825
r131 (  93 596 ) resistor r=1.2825
r132 (  92 515 ) resistor r=1.26
r133 (  91 512 ) resistor r=1.26
r134 (  90 509 ) resistor r=1.26
r135 (  89 506 ) resistor r=1.26
r136 (  88 503 ) resistor r=1.26
r137 (  87 500 ) resistor r=1.26
r138 (  86 419 ) resistor r=1.4025
r139 (  85 416 ) resistor r=1.4025
r140 (  84 413 ) resistor r=1.4025
r141 (  83 410 ) resistor r=1.4025
r142 (  82 407 ) resistor r=1.4025
r143 (  81 404 ) resistor r=1.4025
r144 (  80 719 ) resistor r=1.4475
r145 (  79 716 ) resistor r=1.4475
r146 (  78 713 ) resistor r=1.4475
r147 (  77 710 ) resistor r=1.4475
r148 (  76 623 ) resistor r=1.2825
r149 (  75 620 ) resistor r=1.2825
r150 (  74 617 ) resistor r=1.2825
r151 (  73 614 ) resistor r=1.2825
r152 (  72 527 ) resistor r=1.26
r153 (  71 524 ) resistor r=1.26
r154 (  70 521 ) resistor r=1.26
r155 (  69 518 ) resistor r=1.26
r156 (  68 431 ) resistor r=1.4025
r157 (  67 428 ) resistor r=1.4025
r158 (  66 425 ) resistor r=1.4025
r159 (  65 422 ) resistor r=1.4025
r160 (  64 737 ) resistor r=1.4475
r161 (  63 734 ) resistor r=1.4475
r162 (  62 731 ) resistor r=1.4475
r163 (  61 728 ) resistor r=1.4475
r164 (  60 725 ) resistor r=1.4475
r165 (  59 722 ) resistor r=1.4475
r166 (  58 641 ) resistor r=1.2825
r167 (  57 638 ) resistor r=1.2825
r168 (  56 635 ) resistor r=1.2825
r169 (  55 632 ) resistor r=1.2825
r170 (  54 629 ) resistor r=1.2825
r171 (  53 626 ) resistor r=1.2825
r172 (  52 545 ) resistor r=1.26
r173 (  51 542 ) resistor r=1.26
r174 (  50 539 ) resistor r=1.26
r175 (  49 536 ) resistor r=1.26
r176 (  48 533 ) resistor r=1.26
r177 (  47 530 ) resistor r=1.26
r178 (  46 449 ) resistor r=1.4025
r179 (  45 446 ) resistor r=1.4025
r180 (  44 443 ) resistor r=1.4025
r181 (  43 440 ) resistor r=1.4025
r182 (  42 437 ) resistor r=1.4025
r183 (  41 434 ) resistor r=1.4025
r184 (  40 749 ) resistor r=1.4475
r185 (  39 746 ) resistor r=1.4475
r186 (  38 743 ) resistor r=1.4475
r187 (  37 740 ) resistor r=1.4475
r188 (  36 653 ) resistor r=1.2825
r189 (  35 650 ) resistor r=1.2825
r190 (  34 647 ) resistor r=1.2825
r191 (  33 644 ) resistor r=1.2825
r192 (  32 557 ) resistor r=1.26
r193 (  31 554 ) resistor r=1.26
r194 (  30 551 ) resistor r=1.26
r195 (  29 548 ) resistor r=1.26
r196 (  28 461 ) resistor r=1.4025
r197 (  27 458 ) resistor r=1.4025
r198 (  26 455 ) resistor r=1.4025
r199 (  25 452 ) resistor r=1.4025
r200 (  24 767 ) resistor r=1.4475
r201 (  23 764 ) resistor r=1.4475
r202 (  22 761 ) resistor r=1.4475
r203 (  21 758 ) resistor r=1.4475
r204 (  20 755 ) resistor r=1.4475
r205 (  19 752 ) resistor r=1.4475
r206 (  18 671 ) resistor r=1.2825
r207 (  17 668 ) resistor r=1.2825
r208 (  16 665 ) resistor r=1.2825
r209 (  15 662 ) resistor r=1.2825
r210 (  14 659 ) resistor r=1.2825
r211 (  13 656 ) resistor r=1.2825
r212 (  12 575 ) resistor r=1.26
r213 (  11 572 ) resistor r=1.26
r214 (  10 569 ) resistor r=1.26
r215 (  9 566 ) resistor r=1.26
r216 (  8 563 ) resistor r=1.26
r217 (  7 560 ) resistor r=1.26
r218 (  6 479 ) resistor r=1.4025
r219 (  5 476 ) resistor r=1.4025
r220 (  4 473 ) resistor r=1.4025
r221 (  3 470 ) resistor r=1.4025
r222 (  2 467 ) resistor r=1.4025
r223 (  1 464 ) resistor r=1.4025
ends PM_POST_L8_256T8_PEX2\%SEL1\<1\>

subckt PM_POST_L8_256T8_PEX2\%SEL2\<1\> ( 1 2 3 4 5 6 7 8 9 10 11 12 13 14 15 \
 16 17 18 19 20 21 22 23 24 25 26 27 28 29 30 31 32 33 34 35 36 37 38 39 40 41 \
 42 43 44 45 46 47 48 49 50 51 52 53 54 55 56 57 58 59 60 61 62 63 64 65 66 67 \
 68 69 70 71 72 73 74 75 76 77 78 79 80 81 82 83 84 85 86 87 88 89 90 91 92 93 \
 94 95 96 97 98 99 100 101 102 103 104 105 106 107 108 109 110 111 112 113 114 \
 115 116 117 118 119 120 121 122 123 124 125 126 127 128 386 389 392 395 398 \
 401 404 407 410 413 416 419 422 425 428 431 434 437 440 443 446 449 452 455 \
 458 461 464 467 470 473 476 479 482 485 488 491 494 497 500 503 506 509 512 \
 515 518 521 524 527 530 533 536 539 542 545 548 551 554 557 560 563 566 569 \
 572 575 578 581 584 587 590 593 596 599 602 605 608 611 614 617 620 623 626 \
 629 632 635 638 641 644 647 650 653 656 659 662 665 668 671 674 677 680 683 \
 686 689 692 695 698 701 704 707 710 713 716 719 722 725 728 731 734 737 740 \
 743 746 749 752 755 758 761 764 767 )
c0 ( 127 0 ) capacitor c=0.182554f
c1 ( 121 0 ) capacitor c=0.182554f
c2 ( 115 0 ) capacitor c=0.182554f
c3 ( 110 0 ) capacitor c=0.188031f
c4 ( 80 0 ) capacitor c=0.182554f
c5 ( 78 0 ) capacitor c=0.182554f
c6 ( 70 0 ) capacitor c=0.182554f
c7 ( 67 0 ) capacitor c=0.188031f
c8 ( 45 0 ) capacitor c=0.182554f
c9 ( 43 0 ) capacitor c=0.182554f
c10 ( 39 0 ) capacitor c=0.182554f
c11 ( 37 0 ) capacitor c=0.182554f
c12 ( 31 0 ) capacitor c=0.182554f
c13 ( 27 0 ) capacitor c=0.188031f
c14 ( 23 0 ) capacitor c=0.182554f
c15 ( 10 0 ) capacitor c=0.182554f
c16 ( 6 0 ) capacitor c=0.188031f
c17 ( 122 0 ) capacitor c=0.182554f
c18 ( 118 0 ) capacitor c=0.182554f
c19 ( 116 0 ) capacitor c=0.182554f
c20 ( 112 0 ) capacitor c=0.182554f
c21 ( 109 0 ) capacitor c=0.188031f
c22 ( 106 0 ) capacitor c=0.188031f
c23 ( 102 0 ) capacitor c=0.182554f
c24 ( 90 0 ) capacitor c=0.182554f
c25 ( 77 0 ) capacitor c=0.182554f
c26 ( 74 0 ) capacitor c=0.182554f
c27 ( 73 0 ) capacitor c=0.182554f
c28 ( 66 0 ) capacitor c=0.376061f
c29 ( 61 0 ) capacitor c=0.182554f
c30 ( 58 0 ) capacitor c=0.182554f
c31 ( 54 0 ) capacitor c=0.182554f
c32 ( 49 0 ) capacitor c=0.188031f
c33 ( 41 0 ) capacitor c=0.182554f
c34 ( 35 0 ) capacitor c=0.182554f
c35 ( 32 0 ) capacitor c=0.182554f
c36 ( 26 0 ) capacitor c=0.376061f
c37 ( 22 0 ) capacitor c=0.365108f
c38 ( 21 0 ) capacitor c=0.365108f
c39 ( 15 0 ) capacitor c=0.182554f
c40 ( 3 0 ) capacitor c=0.188031f
c41 ( 123 0 ) capacitor c=0.365108f
c42 ( 117 0 ) capacitor c=0.182554f
c43 ( 111 0 ) capacitor c=0.182554f
c44 ( 105 0 ) capacitor c=0.376061f
c45 ( 101 0 ) capacitor c=0.365108f
c46 ( 95 0 ) capacitor c=0.365108f
c47 ( 89 0 ) capacitor c=0.182554f
c48 ( 86 0 ) capacitor c=0.188031f
c49 ( 83 0 ) capacitor c=0.376061f
c50 ( 60 0 ) capacitor c=0.182554f
c51 ( 57 0 ) capacitor c=0.182554f
c52 ( 53 0 ) capacitor c=0.365108f
c53 ( 50 0 ) capacitor c=0.188031f
c54 ( 48 0 ) capacitor c=0.365108f
c55 ( 42 0 ) capacitor c=0.365108f
c56 ( 36 0 ) capacitor c=0.182554f
c57 ( 29 0 ) capacitor c=0.188031f
c58 ( 7 0 ) capacitor c=0.182554f
c59 ( 125 0 ) capacitor c=0.365108f
c60 ( 119 0 ) capacitor c=0.365108f
c61 ( 113 0 ) capacitor c=0.365108f
c62 ( 107 0 ) capacitor c=0.376061f
c63 ( 103 0 ) capacitor c=0.365108f
c64 ( 99 0 ) capacitor c=0.365108f
c65 ( 97 0 ) capacitor c=0.365108f