// File: /home/edauser0/ayigit/RowDecoder_Project/CDS_VISIO/project_pex/Post_L8_256t8_Text/spectreText/spectre.scs.POST_L8_256T8_PEX2.pxi
// Created: Tue Dec 21 11:41:04 2021
// 
simulator lang=spectre
x_PM_POST_L8_256T8_PEX2\%SEL7\<1\> ( \
 N_SEL7\<1\>_XI2\<1\>\/XI2\<1\>\/XI2\<1\>\/XI2\<1\>\/XI2\<0\>\/XI2\<1\>\/XI2\<1\>\/XI2\<0\>\/RR5_pos \
 N_SEL7\<1\>_XI2\<1\>\/XI2\<1\>\/XI2\<1\>\/XI2\<1\>\/XI2\<0\>\/XI2\<1\>\/XI2\<1\>\/XI2\<1\>\/RR5_pos \
 N_SEL7\<1\>_XI2\<1\>\/XI2\<1\>\/XI2\<1\>\/XI2\<1\>\/XI2\<1\>\/XI2\<0\>\/XI2\<0\>\/XI2\<0\>\/RR5_pos \
 N_SEL7\<1\>_XI2\<1\>\/XI2\<1\>\/XI2\<1\>\/XI2\<1\>\/XI2\<1\>\/XI2\<0\>\/XI2\<0\>\/XI2\<1\>\/RR5_pos \
 N_SEL7\<1\>_XI2\<1\>\/XI2\<1\>\/XI2\<1\>\/XI2\<1\>\/XI2\<1\>\/XI2\<0\>\/XI2\<1\>\/XI2\<0\>\/RR5_pos \
 N_SEL7\<1\>_XI2\<1\>\/XI2\<1\>\/XI2\<1\>\/XI2\<1\>\/XI2\<1\>\/XI2\<0\>\/XI2\<1\>\/XI2\<1\>\/RR5_pos \
 N_SEL7\<1\>_XI2\<1\>\/XI2\<1\>\/XI2\<1\>\/XI2\<1\>\/XI2\<1\>\/XI2\<1\>\/XI2\<0\>\/XI2\<0\>\/RR5_pos \
 N_SEL7\<1\>_XI2\<1\>\/XI2\<1\>\/XI2\<1\>\/XI2\<1\>\/XI2\<1\>\/XI2\<1\>\/XI2\<0\>\/XI2\<1\>\/RR5_pos \
 N_SEL7\<1\>_XI2\<1\>\/XI2\<1\>\/XI2\<1\>\/XI2\<1\>\/XI2\<1\>\/XI2\<1\>\/XI2\<1\>\/XI2\<0\>\/RR5_pos \
 N_SEL7\<1\>_XI2\<1\>\/XI2\<1\>\/XI2\<1\>\/XI2\<1\>\/XI2\<1\>\/XI2\<1\>\/XI2\<1\>\/XI2\<1\>\/RR5_pos \
 N_SEL7\<1\>_XI2\<1\>\/XI2\<0\>\/XI2\<1\>\/XI2\<1\>\/XI2\<0\>\/XI2\<1\>\/XI2\<1\>\/XI2\<0\>\/RR5_pos \
 N_SEL7\<1\>_XI2\<1\>\/XI2\<0\>\/XI2\<1\>\/XI2\<1\>\/XI2\<0\>\/XI2\<1\>\/XI2\<1\>\/XI2\<1\>\/RR5_pos \
 N_SEL7\<1\>_XI2\<1\>\/XI2\<0\>\/XI2\<1\>\/XI2\<1\>\/XI2\<1\>\/XI2\<0\>\/XI2\<0\>\/XI2\<0\>\/RR5_pos \
 N_SEL7\<1\>_XI2\<1\>\/XI2\<0\>\/XI2\<1\>\/XI2\<1\>\/XI2\<1\>\/XI2\<0\>\/XI2\<0\>\/XI2\<1\>\/RR5_pos \
 N_SEL7\<1\>_XI2\<1\>\/XI2\<0\>\/XI2\<1\>\/XI2\<1\>\/XI2\<1\>\/XI2\<0\>\/XI2\<1\>\/XI2\<0\>\/RR5_pos \
 N_SEL7\<1\>_XI2\<1\>\/XI2\<0\>\/XI2\<1\>\/XI2\<1\>\/XI2\<1\>\/XI2\<0\>\/XI2\<1\>\/XI2\<1\>\/RR5_pos \
 N_SEL7\<1\>_XI2\<1\>\/XI2\<0\>\/XI2\<1\>\/XI2\<1\>\/XI2\<1\>\/XI2\<1\>\/XI2\<0\>\/XI2\<0\>\/RR5_pos \
 N_SEL7\<1\>_XI2\<1\>\/XI2\<0\>\/XI2\<1\>\/XI2\<1\>\/XI2\<1\>\/XI2\<1\>\/XI2\<0\>\/XI2\<1\>\/RR5_pos \
 N_SEL7\<1\>_XI2\<1\>\/XI2\<0\>\/XI2\<1\>\/XI2\<1\>\/XI2\<1\>\/XI2\<1\>\/XI2\<1\>\/XI2\<0\>\/RR5_pos \
 N_SEL7\<1\>_XI2\<1\>\/XI2\<0\>\/XI2\<1\>\/XI2\<1\>\/XI2\<1\>\/XI2\<1\>\/XI2\<1\>\/XI2\<1\>\/RR5_pos \
 N_SEL7\<1\>_XI2\<1\>\/XI2\<1\>\/XI2\<1\>\/XI2\<0\>\/XI2\<1\>\/XI2\<0\>\/XI2\<1\>\/XI2\<1\>\/RR5_pos \
 N_SEL7\<1\>_XI2\<1\>\/XI2\<1\>\/XI2\<1\>\/XI2\<0\>\/XI2\<1\>\/XI2\<1\>\/XI2\<0\>\/XI2\<0\>\/RR5_pos \
 N_SEL7\<1\>_XI2\<1\>\/XI2\<1\>\/XI2\<1\>\/XI2\<0\>\/XI2\<1\>\/XI2\<1\>\/XI2\<0\>\/XI2\<1\>\/RR5_pos \
 N_SEL7\<1\>_XI2\<1\>\/XI2\<1\>\/XI2\<1\>\/XI2\<0\>\/XI2\<1\>\/XI2\<1\>\/XI2\<1\>\/XI2\<0\>\/RR5_pos \
 N_SEL7\<1\>_XI2\<1\>\/XI2\<1\>\/XI2\<1\>\/XI2\<0\>\/XI2\<1\>\/XI2\<1\>\/XI2\<1\>\/XI2\<1\>\/RR5_pos \
 N_SEL7\<1\>_XI2\<1\>\/XI2\<1\>\/XI2\<1\>\/XI2\<1\>\/XI2\<0\>\/XI2\<0\>\/XI2\<0\>\/XI2\<0\>\/RR5_pos \
 N_SEL7\<1\>_XI2\<1\>\/XI2\<1\>\/XI2\<1\>\/XI2\<1\>\/XI2\<0\>\/XI2\<0\>\/XI2\<0\>\/XI2\<1\>\/RR5_pos \
 N_SEL7\<1\>_XI2\<1\>\/XI2\<1\>\/XI2\<1\>\/XI2\<1\>\/XI2\<0\>\/XI2\<0\>\/XI2\<1\>\/XI2\<0\>\/RR5_pos \
 N_SEL7\<1\>_XI2\<1\>\/XI2\<1\>\/XI2\<1\>\/XI2\<1\>\/XI2\<0\>\/XI2\<0\>\/XI2\<1\>\/XI2\<1\>\/RR5_pos \
 N_SEL7\<1\>_XI2\<1\>\/XI2\<1\>\/XI2\<1\>\/XI2\<1\>\/XI2\<0\>\/XI2\<1\>\/XI2\<0\>\/XI2\<0\>\/RR5_pos \
 N_SEL7\<1\>_XI2\<1\>\/XI2\<0\>\/XI2\<1\>\/XI2\<0\>\/XI2\<1\>\/XI2\<0\>\/XI2\<1\>\/XI2\<1\>\/RR5_pos \
 N_SEL7\<1\>_XI2\<1\>\/XI2\<0\>\/XI2\<1\>\/XI2\<0\>\/XI2\<1\>\/XI2\<1\>\/XI2\<0\>\/XI2\<0\>\/RR5_pos \
 N_SEL7\<1\>_XI2\<1\>\/XI2\<0\>\/XI2\<1\>\/XI2\<0\>\/XI2\<1\>\/XI2\<1\>\/XI2\<0\>\/XI2\<1\>\/RR5_pos \
 N_SEL7\<1\>_XI2\<1\>\/XI2\<0\>\/XI2\<1\>\/XI2\<0\>\/XI2\<1\>\/XI2\<1\>\/XI2\<1\>\/XI2\<0\>\/RR5_pos \
 N_SEL7\<1\>_XI2\<1\>\/XI2\<0\>\/XI2\<1\>\/XI2\<0\>\/XI2\<1\>\/XI2\<1\>\/XI2\<1\>\/XI2\<1\>\/RR5_pos \
 N_SEL7\<1\>_XI2\<1\>\/XI2\<0\>\/XI2\<1\>\/XI2\<1\>\/XI2\<0\>\/XI2\<0\>\/XI2\<0\>\/XI2\<0\>\/RR5_pos \
 N_SEL7\<1\>_XI2\<1\>\/XI2\<0\>\/XI2\<1\>\/XI2\<1\>\/XI2\<0\>\/XI2\<0\>\/XI2\<0\>\/XI2\<1\>\/RR5_pos \
 N_SEL7\<1\>_XI2\<1\>\/XI2\<0\>\/XI2\<1\>\/XI2\<1\>\/XI2\<0\>\/XI2\<0\>\/XI2\<1\>\/XI2\<0\>\/RR5_pos \
 N_SEL7\<1\>_XI2\<1\>\/XI2\<0\>\/XI2\<1\>\/XI2\<1\>\/XI2\<0\>\/XI2\<0\>\/XI2\<1\>\/XI2\<1\>\/RR5_pos \
 N_SEL7\<1\>_XI2\<1\>\/XI2\<0\>\/XI2\<1\>\/XI2\<1\>\/XI2\<0\>\/XI2\<1\>\/XI2\<0\>\/XI2\<0\>\/RR5_pos \
 N_SEL7\<1\>_XI2\<1\>\/XI2\<1\>\/XI2\<1\>\/XI2\<0\>\/XI2\<0\>\/XI2\<0\>\/XI2\<0\>\/XI2\<1\>\/RR5_pos \
 N_SEL7\<1\>_XI2\<1\>\/XI2\<1\>\/XI2\<1\>\/XI2\<0\>\/XI2\<0\>\/XI2\<0\>\/XI2\<1\>\/XI2\<0\>\/RR5_pos \
 N_SEL7\<1\>_XI2\<1\>\/XI2\<1\>\/XI2\<1\>\/XI2\<0\>\/XI2\<0\>\/XI2\<0\>\/XI2\<1\>\/XI2\<1\>\/RR5_pos \
 N_SEL7\<1\>_XI2\<1\>\/XI2\<1\>\/XI2\<1\>\/XI2\<0\>\/XI2\<0\>\/XI2\<1\>\/XI2\<0\>\/XI2\<0\>\/RR5_pos \
 N_SEL7\<1\>_XI2\<1\>\/XI2\<1\>\/XI2\<1\>\/XI2\<0\>\/XI2\<0\>\/XI2\<1\>\/XI2\<0\>\/XI2\<1\>\/RR5_pos \
 N_SEL7\<1\>_XI2\<1\>\/XI2\<1\>\/XI2\<1\>\/XI2\<0\>\/XI2\<0\>\/XI2\<1\>\/XI2\<1\>\/XI2\<0\>\/RR5_pos \
 N_SEL7\<1\>_XI2\<1\>\/XI2\<1\>\/XI2\<1\>\/XI2\<0\>\/XI2\<0\>\/XI2\<1\>\/XI2\<1\>\/XI2\<1\>\/RR5_pos \
 N_SEL7\<1\>_XI2\<1\>\/XI2\<1\>\/XI2\<1\>\/XI2\<0\>\/XI2\<1\>\/XI2\<0\>\/XI2\<0\>\/XI2\<0\>\/RR5_pos \
 N_SEL7\<1\>_XI2\<1\>\/XI2\<1\>\/XI2\<1\>\/XI2\<0\>\/XI2\<1\>\/XI2\<0\>\/XI2\<0\>\/XI2\<1\>\/RR5_pos \
 N_SEL7\<1\>_XI2\<1\>\/XI2\<1\>\/XI2\<1\>\/XI2\<0\>\/XI2\<1\>\/XI2\<0\>\/XI2\<1\>\/XI2\<0\>\/RR5_pos \
 N_SEL7\<1\>_XI2\<1\>\/XI2\<0\>\/XI2\<1\>\/XI2\<0\>\/XI2\<0\>\/XI2\<0\>\/XI2\<0\>\/XI2\<1\>\/RR5_pos \
 N_SEL7\<1\>_XI2\<1\>\/XI2\<0\>\/XI2\<1\>\/XI2\<0\>\/XI2\<0\>\/XI2\<0\>\/XI2\<1\>\/XI2\<0\>\/RR5_pos \
 N_SEL7\<1\>_XI2\<1\>\/XI2\<0\>\/XI2\<1\>\/XI2\<0\>\/XI2\<0\>\/XI2\<0\>\/XI2\<1\>\/XI2\<1\>\/RR5_pos \
 N_SEL7\<1\>_XI2\<1\>\/XI2\<0\>\/XI2\<1\>\/XI2\<0\>\/XI2\<0\>\/XI2\<1\>\/XI2\<0\>\/XI2\<0\>\/RR5_pos \
 N_SEL7\<1\>_XI2\<1\>\/XI2\<0\>\/XI2\<1\>\/XI2\<0\>\/XI2\<0\>\/XI2\<1\>\/XI2\<0\>\/XI2\<1\>\/RR5_pos \
 N_SEL7\<1\>_XI2\<1\>\/XI2\<0\>\/XI2\<1\>\/XI2\<0\>\/XI2\<0\>\/XI2\<1\>\/XI2\<1\>\/XI2\<0\>\/RR5_pos \
 N_SEL7\<1\>_XI2\<1\>\/XI2\<0\>\/XI2\<1\>\/XI2\<0\>\/XI2\<0\>\/XI2\<1\>\/XI2\<1\>\/XI2\<1\>\/RR5_pos \
 N_SEL7\<1\>_XI2\<1\>\/XI2\<0\>\/XI2\<1\>\/XI2\<0\>\/XI2\<1\>\/XI2\<0\>\/XI2\<0\>\/XI2\<0\>\/RR5_pos \
 N_SEL7\<1\>_XI2\<1\>\/XI2\<0\>\/XI2\<1\>\/XI2\<0\>\/XI2\<1\>\/XI2\<0\>\/XI2\<0\>\/XI2\<1\>\/RR5_pos \
 N_SEL7\<1\>_XI2\<1\>\/XI2\<0\>\/XI2\<1\>\/XI2\<0\>\/XI2\<1\>\/XI2\<0\>\/XI2\<1\>\/XI2\<0\>\/RR5_pos \
 N_SEL7\<1\>_XI2\<1\>\/XI2\<1\>\/XI2\<0\>\/XI2\<1\>\/XI2\<0\>\/XI2\<1\>\/XI2\<1\>\/XI2\<1\>\/RR5_pos \
 N_SEL7\<1\>_XI2\<1\>\/XI2\<1\>\/XI2\<0\>\/XI2\<1\>\/XI2\<1\>\/XI2\<0\>\/XI2\<0\>\/XI2\<0\>\/RR5_pos \
 N_SEL7\<1\>_XI2\<1\>\/XI2\<1\>\/XI2\<0\>\/XI2\<1\>\/XI2\<1\>\/XI2\<0\>\/XI2\<0\>\/XI2\<1\>\/RR5_pos \
 N_SEL7\<1\>_XI2\<1\>\/XI2\<1\>\/XI2\<0\>\/XI2\<1\>\/XI2\<1\>\/XI2\<0\>\/XI2\<1\>\/XI2\<0\>\/RR5_pos \
 N_SEL7\<1\>_XI2\<1\>\/XI2\<1\>\/XI2\<0\>\/XI2\<1\>\/XI2\<1\>\/XI2\<0\>\/XI2\<1\>\/XI2\<1\>\/RR5_pos \
 N_SEL7\<1\>_XI2\<1\>\/XI2\<1\>\/XI2\<0\>\/XI2\<1\>\/XI2\<1\>\/XI2\<1\>\/XI2\<0\>\/XI2\<0\>\/RR5_pos \
 N_SEL7\<1\>_XI2\<1\>\/XI2\<1\>\/XI2\<0\>\/XI2\<1\>\/XI2\<1\>\/XI2\<1\>\/XI2\<0\>\/XI2\<1\>\/RR5_pos \
 N_SEL7\<1\>_XI2\<1\>\/XI2\<1\>\/XI2\<0\>\/XI2\<1\>\/XI2\<1\>\/XI2\<1\>\/XI2\<1\>\/XI2\<0\>\/RR5_pos \
 N_SEL7\<1\>_XI2\<1\>\/XI2\<1\>\/XI2\<0\>\/XI2\<1\>\/XI2\<1\>\/XI2\<1\>\/XI2\<1\>\/XI2\<1\>\/RR5_pos \
 N_SEL7\<1\>_XI2\<1\>\/XI2\<1\>\/XI2\<1\>\/XI2\<0\>\/XI2\<0\>\/XI2\<0\>\/XI2\<0\>\/XI2\<0\>\/RR5_pos \
 N_SEL7\<1\>_XI2\<1\>\/XI2\<0\>\/XI2\<0\>\/XI2\<1\>\/XI2\<0\>\/XI2\<1\>\/XI2\<1\>\/XI2\<1\>\/RR5_pos \
 N_SEL7\<1\>_XI2\<1\>\/XI2\<0\>\/XI2\<0\>\/XI2\<1\>\/XI2\<1\>\/XI2\<0\>\/XI2\<0\>\/XI2\<0\>\/RR5_pos \
 N_SEL7\<1\>_XI2\<1\>\/XI2\<0\>\/XI2\<0\>\/XI2\<1\>\/XI2\<1\>\/XI2\<0\>\/XI2\<0\>\/XI2\<1\>\/RR5_pos \
 N_SEL7\<1\>_XI2\<1\>\/XI2\<0\>\/XI2\<0\>\/XI2\<1\>\/XI2\<1\>\/XI2\<0\>\/XI2\<1\>\/XI2\<0\>\/RR5_pos \
 N_SEL7\<1\>_XI2\<1\>\/XI2\<0\>\/XI2\<0\>\/XI2\<1\>\/XI2\<1\>\/XI2\<0\>\/XI2\<1\>\/XI2\<1\>\/RR5_pos \
 N_SEL7\<1\>_XI2\<1\>\/XI2\<0\>\/XI2\<0\>\/XI2\<1\>\/XI2\<1\>\/XI2\<1\>\/XI2\<0\>\/XI2\<0\>\/RR5_pos \
 N_SEL7\<1\>_XI2\<1\>\/XI2\<0\>\/XI2\<0\>\/XI2\<1\>\/XI2\<1\>\/XI2\<1\>\/XI2\<0\>\/XI2\<1\>\/RR5_pos \
 N_SEL7\<1\>_XI2\<1\>\/XI2\<0\>\/XI2\<0\>\/XI2\<1\>\/XI2\<1\>\/XI2\<1\>\/XI2\<1\>\/XI2\<0\>\/RR5_pos \
 N_SEL7\<1\>_XI2\<1\>\/XI2\<0\>\/XI2\<0\>\/XI2\<1\>\/XI2\<1\>\/XI2\<1\>\/XI2\<1\>\/XI2\<1\>\/RR5_pos \
 N_SEL7\<1\>_XI2\<1\>\/XI2\<0\>\/XI2\<1\>\/XI2\<0\>\/XI2\<0\>\/XI2\<0\>\/XI2\<0\>\/XI2\<0\>\/RR5_pos \
 N_SEL7\<1\>_XI2\<1\>\/XI2\<1\>\/XI2\<0\>\/XI2\<0\>\/XI2\<1\>\/XI2\<1\>\/XI2\<0\>\/XI2\<1\>\/RR5_pos \
 N_SEL7\<1\>_XI2\<1\>\/XI2\<1\>\/XI2\<0\>\/XI2\<0\>\/XI2\<1\>\/XI2\<1\>\/XI2\<1\>\/XI2\<0\>\/RR5_pos \
 N_SEL7\<1\>_XI2\<1\>\/XI2\<1\>\/XI2\<0\>\/XI2\<0\>\/XI2\<1\>\/XI2\<1\>\/XI2\<1\>\/XI2\<1\>\/RR5_pos \
 N_SEL7\<1\>_XI2\<1\>\/XI2\<1\>\/XI2\<0\>\/XI2\<1\>\/XI2\<0\>\/XI2\<0\>\/XI2\<0\>\/XI2\<0\>\/RR5_pos \
 N_SEL7\<1\>_XI2\<1\>\/XI2\<1\>\/XI2\<0\>\/XI2\<1\>\/XI2\<0\>\/XI2\<0\>\/XI2\<0\>\/XI2\<1\>\/RR5_pos \
 N_SEL7\<1\>_XI2\<1\>\/XI2\<1\>\/XI2\<0\>\/XI2\<1\>\/XI2\<0\>\/XI2\<0\>\/XI2\<1\>\/XI2\<0\>\/RR5_pos \
 N_SEL7\<1\>_XI2\<1\>\/XI2\<1\>\/XI2\<0\>\/XI2\<1\>\/XI2\<0\>\/XI2\<0\>\/XI2\<1\>\/XI2\<1\>\/RR5_pos \
 N_SEL7\<1\>_XI2\<1\>\/XI2\<1\>\/XI2\<0\>\/XI2\<1\>\/XI2\<0\>\/XI2\<1\>\/XI2\<0\>\/XI2\<0\>\/RR5_pos \
 N_SEL7\<1\>_XI2\<1\>\/XI2\<1\>\/XI2\<0\>\/XI2\<1\>\/XI2\<0\>\/XI2\<1\>\/XI2\<0\>\/XI2\<1\>\/RR5_pos \
 N_SEL7\<1\>_XI2\<1\>\/XI2\<1\>\/XI2\<0\>\/XI2\<1\>\/XI2\<0\>\/XI2\<1\>\/XI2\<1\>\/XI2\<0\>\/RR5_pos \
 N_SEL7\<1\>_XI2\<1\>\/XI2\<0\>\/XI2\<0\>\/XI2\<0\>\/XI2\<1\>\/XI2\<1\>\/XI2\<0\>\/XI2\<1\>\/RR5_pos \
 N_SEL7\<1\>_XI2\<1\>\/XI2\<0\>\/XI2\<0\>\/XI2\<0\>\/XI2\<1\>\/XI2\<1\>\/XI2\<1\>\/XI2\<0\>\/RR5_pos \
 N_SEL7\<1\>_XI2\<1\>\/XI2\<0\>\/XI2\<0\>\/XI2\<0\>\/XI2\<1\>\/XI2\<1\>\/XI2\<1\>\/XI2\<1\>\/RR5_pos \
 N_SEL7\<1\>_XI2\<1\>\/XI2\<0\>\/XI2\<0\>\/XI2\<1\>\/XI2\<0\>\/XI2\<0\>\/XI2\<0\>\/XI2\<0\>\/RR5_pos \
 N_SEL7\<1\>_XI2\<1\>\/XI2\<0\>\/XI2\<0\>\/XI2\<1\>\/XI2\<0\>\/XI2\<0\>\/XI2\<0\>\/XI2\<1\>\/RR5_pos \
 N_SEL7\<1\>_XI2\<1\>\/XI2\<0\>\/XI2\<0\>\/XI2\<1\>\/XI2\<0\>\/XI2\<0\>\/XI2\<1\>\/XI2\<0\>\/RR5_pos \
 N_SEL7\<1\>_XI2\<1\>\/XI2\<0\>\/XI2\<0\>\/XI2\<1\>\/XI2\<0\>\/XI2\<0\>\/XI2\<1\>\/XI2\<1\>\/RR5_pos \
 N_SEL7\<1\>_XI2\<1\>\/XI2\<0\>\/XI2\<0\>\/XI2\<1\>\/XI2\<0\>\/XI2\<1\>\/XI2\<0\>\/XI2\<0\>\/RR5_pos \
 N_SEL7\<1\>_XI2\<1\>\/XI2\<0\>\/XI2\<0\>\/XI2\<1\>\/XI2\<0\>\/XI2\<1\>\/XI2\<0\>\/XI2\<1\>\/RR5_pos \
 N_SEL7\<1\>_XI2\<1\>\/XI2\<0\>\/XI2\<0\>\/XI2\<1\>\/XI2\<0\>\/XI2\<1\>\/XI2\<1\>\/XI2\<0\>\/RR5_pos \
 N_SEL7\<1\>_XI2\<1\>\/XI2\<1\>\/XI2\<0\>\/XI2\<0\>\/XI2\<0\>\/XI2\<0\>\/XI2\<1\>\/XI2\<1\>\/RR5_pos \
 N_SEL7\<1\>_XI2\<1\>\/XI2\<1\>\/XI2\<0\>\/XI2\<0\>\/XI2\<0\>\/XI2\<1\>\/XI2\<0\>\/XI2\<0\>\/RR5_pos \
 N_SEL7\<1\>_XI2\<1\>\/XI2\<1\>\/XI2\<0\>\/XI2\<0\>\/XI2\<0\>\/XI2\<1\>\/XI2\<0\>\/XI2\<1\>\/RR5_pos \
 N_SEL7\<1\>_XI2\<1\>\/XI2\<1\>\/XI2\<0\>\/XI2\<0\>\/XI2\<0\>\/XI2\<1\>\/XI2\<1\>\/XI2\<0\>\/RR5_pos \
 N_SEL7\<1\>_XI2\<1\>\/XI2\<1\>\/XI2\<0\>\/XI2\<0\>\/XI2\<0\>\/XI2\<1\>\/XI2\<1\>\/XI2\<1\>\/RR5_pos \
 N_SEL7\<1\>_XI2\<1\>\/XI2\<1\>\/XI2\<0\>\/XI2\<0\>\/XI2\<1\>\/XI2\<0\>\/XI2\<0\>\/XI2\<0\>\/RR5_pos \
 N_SEL7\<1\>_XI2\<1\>\/XI2\<1\>\/XI2\<0\>\/XI2\<0\>\/XI2\<1\>\/XI2\<0\>\/XI2\<0\>\/XI2\<1\>\/RR5_pos \
 N_SEL7\<1\>_XI2\<1\>\/XI2\<1\>\/XI2\<0\>\/XI2\<0\>\/XI2\<1\>\/XI2\<0\>\/XI2\<1\>\/XI2\<0\>\/RR5_pos \
 N_SEL7\<1\>_XI2\<1\>\/XI2\<1\>\/XI2\<0\>\/XI2\<0\>\/XI2\<1\>\/XI2\<0\>\/XI2\<1\>\/XI2\<1\>\/RR5_pos \
 N_SEL7\<1\>_XI2\<1\>\/XI2\<1\>\/XI2\<0\>\/XI2\<0\>\/XI2\<1\>\/XI2\<1\>\/XI2\<0\>\/XI2\<0\>\/RR5_pos \
 N_SEL7\<1\>_XI2\<1\>\/XI2\<0\>\/XI2\<0\>\/XI2\<0\>\/XI2\<0\>\/XI2\<0\>\/XI2\<1\>\/XI2\<1\>\/RR5_pos \
 N_SEL7\<1\>_XI2\<1\>\/XI2\<0\>\/XI2\<0\>\/XI2\<0\>\/XI2\<0\>\/XI2\<1\>\/XI2\<0\>\/XI2\<0\>\/RR5_pos \
 N_SEL7\<1\>_XI2\<1\>\/XI2\<0\>\/XI2\<0\>\/XI2\<0\>\/XI2\<0\>\/XI2\<1\>\/XI2\<0\>\/XI2\<1\>\/RR5_pos \
 N_SEL7\<1\>_XI2\<1\>\/XI2\<0\>\/XI2\<0\>\/XI2\<0\>\/XI2\<0\>\/XI2\<1\>\/XI2\<1\>\/XI2\<0\>\/RR5_pos \
 N_SEL7\<1\>_XI2\<1\>\/XI2\<0\>\/XI2\<0\>\/XI2\<0\>\/XI2\<0\>\/XI2\<1\>\/XI2\<1\>\/XI2\<1\>\/RR5_pos \
 N_SEL7\<1\>_XI2\<1\>\/XI2\<0\>\/XI2\<0\>\/XI2\<0\>\/XI2\<1\>\/XI2\<0\>\/XI2\<0\>\/XI2\<0\>\/RR5_pos \
 N_SEL7\<1\>_XI2\<1\>\/XI2\<0\>\/XI2\<0\>\/XI2\<0\>\/XI2\<1\>\/XI2\<0\>\/XI2\<0\>\/XI2\<1\>\/RR5_pos \
 N_SEL7\<1\>_XI2\<1\>\/XI2\<0\>\/XI2\<0\>\/XI2\<0\>\/XI2\<1\>\/XI2\<0\>\/XI2\<1\>\/XI2\<0\>\/RR5_pos \
 N_SEL7\<1\>_XI2\<1\>\/XI2\<0\>\/XI2\<0\>\/XI2\<0\>\/XI2\<1\>\/XI2\<0\>\/XI2\<1\>\/XI2\<1\>\/RR5_pos \
 N_SEL7\<1\>_XI2\<1\>\/XI2\<0\>\/XI2\<0\>\/XI2\<0\>\/XI2\<1\>\/XI2\<1\>\/XI2\<0\>\/XI2\<0\>\/RR5_pos \
 N_SEL7\<1\>_XI2\<1\>\/XI2\<1\>\/XI2\<0\>\/XI2\<0\>\/XI2\<0\>\/XI2\<0\>\/XI2\<0\>\/XI2\<0\>\/RR5_pos \
 N_SEL7\<1\>_XI2\<1\>\/XI2\<1\>\/XI2\<0\>\/XI2\<0\>\/XI2\<0\>\/XI2\<0\>\/XI2\<0\>\/XI2\<1\>\/RR5_pos \
 N_SEL7\<1\>_XI2\<1\>\/XI2\<1\>\/XI2\<0\>\/XI2\<0\>\/XI2\<0\>\/XI2\<0\>\/XI2\<1\>\/XI2\<0\>\/RR5_pos \
 N_SEL7\<1\>_XI2\<1\>\/XI2\<0\>\/XI2\<0\>\/XI2\<0\>\/XI2\<0\>\/XI2\<0\>\/XI2\<0\>\/XI2\<0\>\/RR5_pos \
 N_SEL7\<1\>_XI2\<1\>\/XI2\<0\>\/XI2\<0\>\/XI2\<0\>\/XI2\<0\>\/XI2\<0\>\/XI2\<0\>\/XI2\<1\>\/RR5_pos \
 N_SEL7\<1\>_XI2\<1\>\/XI2\<0\>\/XI2\<0\>\/XI2\<0\>\/XI2\<0\>\/XI2\<0\>\/XI2\<1\>\/XI2\<0\>\/RR5_pos \
 SEL7\<1\> SEL7\<1\> SEL7\<1\> SEL7\<1\> SEL7\<1\> SEL7\<1\> SEL7\<1\> \
 SEL7\<1\> SEL7\<1\> SEL7\<1\> SEL7\<1\> SEL7\<1\> SEL7\<1\> SEL7\<1\> \
 SEL7\<1\> SEL7\<1\> SEL7\<1\> SEL7\<1\> SEL7\<1\> SEL7\<1\> SEL7\<1\> \
 SEL7\<1\> SEL7\<1\> SEL7\<1\> SEL7\<1\> SEL7\<1\> SEL7\<1\> SEL7\<1\> \
 SEL7\<1\> SEL7\<1\> SEL7\<1\> SEL7\<1\> SEL7\<1\> SEL7\<1\> SEL7\<1\> \
 SEL7\<1\> SEL7\<1\> SEL7\<1\> SEL7\<1\> SEL7\<1\> SEL7\<1\> SEL7\<1\> \
 SEL7\<1\> SEL7\<1\> SEL7\<1\> SEL7\<1\> SEL7\<1\> SEL7\<1\> SEL7\<1\> \
 SEL7\<1\> SEL7\<1\> SEL7\<1\> SEL7\<1\> \
 N_SEL7\<1\>_XI2\<1\>\/XI2\<1\>\/XI2\<1\>\/XI2\<1\>\/XI2\<0\>\/XI2\<1\>\/XI2\<0\>\/XI2\<1\>\/RR5_pos \
 SEL7\<1\> SEL7\<1\> SEL7\<1\> SEL7\<1\> SEL7\<1\> SEL7\<1\> SEL7\<1\> \
 SEL7\<1\> SEL7\<1\> SEL7\<1\> SEL7\<1\> SEL7\<1\> SEL7\<1\> SEL7\<1\> \
 SEL7\<1\> SEL7\<1\> SEL7\<1\> SEL7\<1\> SEL7\<1\> SEL7\<1\> SEL7\<1\> \
 SEL7\<1\> SEL7\<1\> SEL7\<1\> SEL7\<1\> SEL7\<1\> SEL7\<1\> SEL7\<1\> \
 SEL7\<1\> SEL7\<1\> SEL7\<1\> SEL7\<1\> SEL7\<1\> SEL7\<1\> SEL7\<1\> \
 SEL7\<1\> SEL7\<1\> SEL7\<1\> SEL7\<1\> SEL7\<1\> SEL7\<1\> SEL7\<1\> \
 SEL7\<1\> SEL7\<1\> SEL7\<1\> SEL7\<1\> SEL7\<1\> SEL7\<1\> SEL7\<1\> \
 SEL7\<1\> SEL7\<1\> SEL7\<1\> SEL7\<1\> SEL7\<1\> SEL7\<1\> SEL7\<1\> \
 SEL7\<1\> SEL7\<1\> SEL7\<1\> SEL7\<1\> SEL7\<1\> SEL7\<1\> SEL7\<1\> \
 SEL7\<1\> \
 N_SEL7\<1\>_XI2\<1\>\/XI2\<0\>\/XI2\<1\>\/XI2\<1\>\/XI2\<0\>\/XI2\<1\>\/XI2\<0\>\/XI2\<1\>\/RR5_pos \
 SEL7\<1\> SEL7\<1\> SEL7\<1\> SEL7\<1\> SEL7\<1\> SEL7\<1\> SEL7\<1\> \
 SEL7\<1\> SEL7\<1\> SEL7\<1\> SEL7\<1\> )  PM_POST_L8_256T8_PEX2\%SEL7\<1\>
x_PM_POST_L8_256T8_PEX2\%SEL0\<0\> ( \
 N_SEL0\<0\>_XI2\<1\>\/XI2\<1\>\/XI2\<1\>\/XI2\<1\>\/XI2\<0\>\/XI2\<1\>\/XI2\<1\>\/XI2\<0\>\/RR0_pos \
 N_SEL0\<0\>_XI2\<1\>\/XI2\<1\>\/XI2\<1\>\/XI2\<1\>\/XI2\<1\>\/XI2\<0\>\/XI2\<0\>\/XI2\<0\>\/RR0_pos \
 N_SEL0\<0\>_XI2\<1\>\/XI2\<1\>\/XI2\<1\>\/XI2\<1\>\/XI2\<1\>\/XI2\<0\>\/XI2\<1\>\/XI2\<0\>\/RR0_pos \
 N_SEL0\<0\>_XI2\<1\>\/XI2\<1\>\/XI2\<1\>\/XI2\<1\>\/XI2\<1\>\/XI2\<1\>\/XI2\<0\>\/XI2\<0\>\/RR0_pos \
 N_SEL0\<0\>_XI2\<1\>\/XI2\<1\>\/XI2\<1\>\/XI2\<1\>\/XI2\<1\>\/XI2\<1\>\/XI2\<1\>\/XI2\<0\>\/RR0_pos \
 N_SEL0\<0\>_XI2\<1\>\/XI2\<0\>\/XI2\<1\>\/XI2\<1\>\/XI2\<0\>\/XI2\<1\>\/XI2\<1\>\/XI2\<0\>\/RR0_pos \
 N_SEL0\<0\>_XI2\<1\>\/XI2\<0\>\/XI2\<1\>\/XI2\<1\>\/XI2\<1\>\/XI2\<0\>\/XI2\<0\>\/XI2\<0\>\/RR0_pos \
 N_SEL0\<0\>_XI2\<1\>\/XI2\<0\>\/XI2\<1\>\/XI2\<1\>\/XI2\<1\>\/XI2\<0\>\/XI2\<1\>\/XI2\<0\>\/RR0_pos \
 N_SEL0\<0\>_XI2\<1\>\/XI2\<0\>\/XI2\<1\>\/XI2\<1\>\/XI2\<1\>\/XI2\<1\>\/XI2\<0\>\/XI2\<0\>\/RR0_pos \
 N_SEL0\<0\>_XI2\<1\>\/XI2\<0\>\/XI2\<1\>\/XI2\<1\>\/XI2\<1\>\/XI2\<1\>\/XI2\<1\>\/XI2\<0\>\/RR0_pos \
 N_SEL0\<0\>_XI2\<0\>\/XI2\<1\>\/XI2\<1\>\/XI2\<1\>\/XI2\<0\>\/XI2\<1\>\/XI2\<1\>\/XI2\<0\>\/RR0_pos \
 N_SEL0\<0\>_XI2\<0\>\/XI2\<1\>\/XI2\<1\>\/XI2\<1\>\/XI2\<1\>\/XI2\<0\>\/XI2\<0\>\/XI2\<0\>\/RR0_pos \
 N_SEL0\<0\>_XI2\<0\>\/XI2\<1\>\/XI2\<1\>\/XI2\<1\>\/XI2\<1\>\/XI2\<0\>\/XI2\<1\>\/XI2\<0\>\/RR0_pos \
 N_SEL0\<0\>_XI2\<0\>\/XI2\<1\>\/XI2\<1\>\/XI2\<1\>\/XI2\<1\>\/XI2\<1\>\/XI2\<0\>\/XI2\<0\>\/RR0_pos \
 N_SEL0\<0\>_XI2\<0\>\/XI2\<1\>\/XI2\<1\>\/XI2\<1\>\/XI2\<1\>\/XI2\<1\>\/XI2\<1\>\/XI2\<0\>\/RR0_pos \
 N_SEL0\<0\>_XI2\<0\>\/XI2\<0\>\/XI2\<1\>\/XI2\<1\>\/XI2\<0\>\/XI2\<1\>\/XI2\<1\>\/XI2\<0\>\/RR0_pos \
 N_SEL0\<0\>_XI2\<0\>\/XI2\<0\>\/XI2\<1\>\/XI2\<1\>\/XI2\<1\>\/XI2\<0\>\/XI2\<0\>\/XI2\<0\>\/RR0_pos \
 N_SEL0\<0\>_XI2\<0\>\/XI2\<0\>\/XI2\<1\>\/XI2\<1\>\/XI2\<1\>\/XI2\<0\>\/XI2\<1\>\/XI2\<0\>\/RR0_pos \
 N_SEL0\<0\>_XI2\<0\>\/XI2\<0\>\/XI2\<1\>\/XI2\<1\>\/XI2\<1\>\/XI2\<1\>\/XI2\<0\>\/XI2\<0\>\/RR0_pos \
 N_SEL0\<0\>_XI2\<0\>\/XI2\<0\>\/XI2\<1\>\/XI2\<1\>\/XI2\<1\>\/XI2\<1\>\/XI2\<1\>\/XI2\<0\>\/RR0_pos \
 N_SEL0\<0\>_XI2\<1\>\/XI2\<1\>\/XI2\<1\>\/XI2\<0\>\/XI2\<1\>\/XI2\<1\>\/XI2\<0\>\/XI2\<0\>\/RR0_pos \
 N_SEL0\<0\>_XI2\<1\>\/XI2\<1\>\/XI2\<1\>\/XI2\<0\>\/XI2\<1\>\/XI2\<1\>\/XI2\<1\>\/XI2\<0\>\/RR0_pos \
 N_SEL0\<0\>_XI2\<1\>\/XI2\<1\>\/XI2\<1\>\/XI2\<1\>\/XI2\<0\>\/XI2\<0\>\/XI2\<0\>\/XI2\<0\>\/RR0_pos \
 N_SEL0\<0\>_XI2\<1\>\/XI2\<1\>\/XI2\<1\>\/XI2\<1\>\/XI2\<0\>\/XI2\<0\>\/XI2\<1\>\/XI2\<0\>\/RR0_pos \
 N_SEL0\<0\>_XI2\<1\>\/XI2\<1\>\/XI2\<1\>\/XI2\<1\>\/XI2\<0\>\/XI2\<1\>\/XI2\<0\>\/XI2\<0\>\/RR0_pos \
 N_SEL0\<0\>_XI2\<1\>\/XI2\<0\>\/XI2\<1\>\/XI2\<0\>\/XI2\<1\>\/XI2\<1\>\/XI2\<0\>\/XI2\<0\>\/RR0_pos \
 N_SEL0\<0\>_XI2\<1\>\/XI2\<0\>\/XI2\<1\>\/XI2\<0\>\/XI2\<1\>\/XI2\<1\>\/XI2\<1\>\/XI2\<0\>\/RR0_pos \
 N_SEL0\<0\>_XI2\<1\>\/XI2\<0\>\/XI2\<1\>\/XI2\<1\>\/XI2\<0\>\/XI2\<0\>\/XI2\<0\>\/XI2\<0\>\/RR0_pos \
 N_SEL0\<0\>_XI2\<1\>\/XI2\<0\>\/XI2\<1\>\/XI2\<1\>\/XI2\<0\>\/XI2\<0\>\/XI2\<1\>\/XI2\<0\>\/RR0_pos \
 N_SEL0\<0\>_XI2\<1\>\/XI2\<0\>\/XI2\<1\>\/XI2\<1\>\/XI2\<0\>\/XI2\<1\>\/XI2\<0\>\/XI2\<0\>\/RR0_pos \
 N_SEL0\<0\>_XI2\<0\>\/XI2\<1\>\/XI2\<1\>\/XI2\<0\>\/XI2\<1\>\/XI2\<1\>\/XI2\<0\>\/XI2\<0\>\/RR0_pos \
 N_SEL0\<0\>_XI2\<0\>\/XI2\<1\>\/XI2\<1\>\/XI2\<0\>\/XI2\<1\>\/XI2\<1\>\/XI2\<1\>\/XI2\<0\>\/RR0_pos \
 N_SEL0\<0\>_XI2\<0\>\/XI2\<1\>\/XI2\<1\>\/XI2\<1\>\/XI2\<0\>\/XI2\<0\>\/XI2\<0\>\/XI2\<0\>\/RR0_pos \
 N_SEL0\<0\>_XI2\<0\>\/XI2\<1\>\/XI2\<1\>\/XI2\<1\>\/XI2\<0\>\/XI2\<0\>\/XI2\<1\>\/XI2\<0\>\/RR0_pos \
 N_SEL0\<0\>_XI2\<0\>\/XI2\<1\>\/XI2\<1\>\/XI2\<1\>\/XI2\<0\>\/XI2\<1\>\/XI2\<0\>\/XI2\<0\>\/RR0_pos \
 N_SEL0\<0\>_XI2\<0\>\/XI2\<0\>\/XI2\<1\>\/XI2\<0\>\/XI2\<1\>\/XI2\<1\>\/XI2\<0\>\/XI2\<0\>\/RR0_pos \
 N_SEL0\<0\>_XI2\<0\>\/XI2\<0\>\/XI2\<1\>\/XI2\<0\>\/XI2\<1\>\/XI2\<1\>\/XI2\<1\>\/XI2\<0\>\/RR0_pos \
 N_SEL0\<0\>_XI2\<0\>\/XI2\<0\>\/XI2\<1\>\/XI2\<1\>\/XI2\<0\>\/XI2\<0\>\/XI2\<0\>\/XI2\<0\>\/RR0_pos \
 N_SEL0\<0\>_XI2\<0\>\/XI2\<0\>\/XI2\<1\>\/XI2\<1\>\/XI2\<0\>\/XI2\<0\>\/XI2\<1\>\/XI2\<0\>\/RR0_pos \
 N_SEL0\<0\>_XI2\<0\>\/XI2\<0\>\/XI2\<1\>\/XI2\<1\>\/XI2\<0\>\/XI2\<1\>\/XI2\<0\>\/XI2\<0\>\/RR0_pos \
 N_SEL0\<0\>_XI2\<1\>\/XI2\<1\>\/XI2\<1\>\/XI2\<0\>\/XI2\<0\>\/XI2\<0\>\/XI2\<1\>\/XI2\<0\>\/RR0_pos \
 N_SEL0\<0\>_XI2\<1\>\/XI2\<1\>\/XI2\<1\>\/XI2\<0\>\/XI2\<0\>\/XI2\<1\>\/XI2\<0\>\/XI2\<0\>\/RR0_pos \
 N_SEL0\<0\>_XI2\<1\>\/XI2\<1\>\/XI2\<1\>\/XI2\<0\>\/XI2\<0\>\/XI2\<1\>\/XI2\<1\>\/XI2\<0\>\/RR0_pos \
 N_SEL0\<0\>_XI2\<1\>\/XI2\<1\>\/XI2\<1\>\/XI2\<0\>\/XI2\<1\>\/XI2\<0\>\/XI2\<0\>\/XI2\<0\>\/RR0_pos \
 N_SEL0\<0\>_XI2\<1\>\/XI2\<1\>\/XI2\<1\>\/XI2\<0\>\/XI2\<1\>\/XI2\<0\>\/XI2\<1\>\/XI2\<0\>\/RR0_pos \
 N_SEL0\<0\>_XI2\<1\>\/XI2\<0\>\/XI2\<1\>\/XI2\<0\>\/XI2\<0\>\/XI2\<0\>\/XI2\<1\>\/XI2\<0\>\/RR0_pos \
 N_SEL0\<0\>_XI2\<1\>\/XI2\<0\>\/XI2\<1\>\/XI2\<0\>\/XI2\<0\>\/XI2\<1\>\/XI2\<0\>\/XI2\<0\>\/RR0_pos \
 N_SEL0\<0\>_XI2\<1\>\/XI2\<0\>\/XI2\<1\>\/XI2\<0\>\/XI2\<0\>\/XI2\<1\>\/XI2\<1\>\/XI2\<0\>\/RR0_pos \
 N_SEL0\<0\>_XI2\<1\>\/XI2\<0\>\/XI2\<1\>\/XI2\<0\>\/XI2\<1\>\/XI2\<0\>\/XI2\<0\>\/XI2\<0\>\/RR0_pos \
 N_SEL0\<0\>_XI2\<1\>\/XI2\<0\>\/XI2\<1\>\/XI2\<0\>\/XI2\<1\>\/XI2\<0\>\/XI2\<1\>\/XI2\<0\>\/RR0_pos \
 N_SEL0\<0\>_XI2\<0\>\/XI2\<1\>\/XI2\<1\>\/XI2\<0\>\/XI2\<0\>\/XI2\<0\>\/XI2\<1\>\/XI2\<0\>\/RR0_pos \
 N_SEL0\<0\>_XI2\<0\>\/XI2\<1\>\/XI2\<1\>\/XI2\<0\>\/XI2\<0\>\/XI2\<1\>\/XI2\<0\>\/XI2\<0\>\/RR0_pos \
 N_SEL0\<0\>_XI2\<0\>\/XI2\<1\>\/XI2\<1\>\/XI2\<0\>\/XI2\<0\>\/XI2\<1\>\/XI2\<1\>\/XI2\<0\>\/RR0_pos \
 N_SEL0\<0\>_XI2\<0\>\/XI2\<1\>\/XI2\<1\>\/XI2\<0\>\/XI2\<1\>\/XI2\<0\>\/XI2\<0\>\/XI2\<0\>\/RR0_pos \
 N_SEL0\<0\>_XI2\<0\>\/XI2\<1\>\/XI2\<1\>\/XI2\<0\>\/XI2\<1\>\/XI2\<0\>\/XI2\<1\>\/XI2\<0\>\/RR0_pos \
 N_SEL0\<0\>_XI2\<0\>\/XI2\<0\>\/XI2\<1\>\/XI2\<0\>\/XI2\<0\>\/XI2\<0\>\/XI2\<1\>\/XI2\<0\>\/RR0_pos \
 N_SEL0\<0\>_XI2\<0\>\/XI2\<0\>\/XI2\<1\>\/XI2\<0\>\/XI2\<0\>\/XI2\<1\>\/XI2\<0\>\/XI2\<0\>\/RR0_pos \
 N_SEL0\<0\>_XI2\<0\>\/XI2\<0\>\/XI2\<1\>\/XI2\<0\>\/XI2\<0\>\/XI2\<1\>\/XI2\<1\>\/XI2\<0\>\/RR0_pos \
 N_SEL0\<0\>_XI2\<0\>\/XI2\<0\>\/XI2\<1\>\/XI2\<0\>\/XI2\<1\>\/XI2\<0\>\/XI2\<0\>\/XI2\<0\>\/RR0_pos \
 N_SEL0\<0\>_XI2\<0\>\/XI2\<0\>\/XI2\<1\>\/XI2\<0\>\/XI2\<1\>\/XI2\<0\>\/XI2\<1\>\/XI2\<0\>\/RR0_pos \
 N_SEL0\<0\>_XI2\<1\>\/XI2\<1\>\/XI2\<0\>\/XI2\<1\>\/XI2\<1\>\/XI2\<0\>\/XI2\<0\>\/XI2\<0\>\/RR0_pos \
 N_SEL0\<0\>_XI2\<1\>\/XI2\<1\>\/XI2\<0\>\/XI2\<1\>\/XI2\<1\>\/XI2\<0\>\/XI2\<1\>\/XI2\<0\>\/RR0_pos \
 N_SEL0\<0\>_XI2\<1\>\/XI2\<1\>\/XI2\<0\>\/XI2\<1\>\/XI2\<1\>\/XI2\<1\>\/XI2\<0\>\/XI2\<0\>\/RR0_pos \
 N_SEL0\<0\>_XI2\<1\>\/XI2\<1\>\/XI2\<0\>\/XI2\<1\>\/XI2\<1\>\/XI2\<1\>\/XI2\<1\>\/XI2\<0\>\/RR0_pos \
 N_SEL0\<0\>_XI2\<1\>\/XI2\<1\>\/XI2\<1\>\/XI2\<0\>\/XI2\<0\>\/XI2\<0\>\/XI2\<0\>\/XI2\<0\>\/RR0_pos \
 N_SEL0\<0\>_XI2\<1\>\/XI2\<0\>\/XI2\<0\>\/XI2\<1\>\/XI2\<1\>\/XI2\<0\>\/XI2\<0\>\/XI2\<0\>\/RR0_pos \
 N_SEL0\<0\>_XI2\<1\>\/XI2\<0\>\/XI2\<0\>\/XI2\<1\>\/XI2\<1\>\/XI2\<0\>\/XI2\<1\>\/XI2\<0\>\/RR0_pos \
 N_SEL0\<0\>_XI2\<1\>\/XI2\<0\>\/XI2\<0\>\/XI2\<1\>\/XI2\<1\>\/XI2\<1\>\/XI2\<0\>\/XI2\<0\>\/RR0_pos \
 N_SEL0\<0\>_XI2\<1\>\/XI2\<0\>\/XI2\<0\>\/XI2\<1\>\/XI2\<1\>\/XI2\<1\>\/XI2\<1\>\/XI2\<0\>\/RR0_pos \
 N_SEL0\<0\>_XI2\<1\>\/XI2\<0\>\/XI2\<1\>\/XI2\<0\>\/XI2\<0\>\/XI2\<0\>\/XI2\<0\>\/XI2\<0\>\/RR0_pos \
 N_SEL0\<0\>_XI2\<0\>\/XI2\<1\>\/XI2\<0\>\/XI2\<1\>\/XI2\<1\>\/XI2\<0\>\/XI2\<0\>\/XI2\<0\>\/RR0_pos \
 N_SEL0\<0\>_XI2\<0\>\/XI2\<1\>\/XI2\<0\>\/XI2\<1\>\/XI2\<1\>\/XI2\<0\>\/XI2\<1\>\/XI2\<0\>\/RR0_pos \
 N_SEL0\<0\>_XI2\<0\>\/XI2\<1\>\/XI2\<0\>\/XI2\<1\>\/XI2\<1\>\/XI2\<1\>\/XI2\<0\>\/XI2\<0\>\/RR0_pos \
 N_SEL0\<0\>_XI2\<0\>\/XI2\<1\>\/XI2\<0\>\/XI2\<1\>\/XI2\<1\>\/XI2\<1\>\/XI2\<1\>\/XI2\<0\>\/RR0_pos \
 N_SEL0\<0\>_XI2\<0\>\/XI2\<1\>\/XI2\<1\>\/XI2\<0\>\/XI2\<0\>\/XI2\<0\>\/XI2\<0\>\/XI2\<0\>\/RR0_pos \
 N_SEL0\<0\>_XI2\<0\>\/XI2\<0\>\/XI2\<0\>\/XI2\<1\>\/XI2\<1\>\/XI2\<0\>\/XI2\<0\>\/XI2\<0\>\/RR0_pos \
 N_SEL0\<0\>_XI2\<0\>\/XI2\<0\>\/XI2\<0\>\/XI2\<1\>\/XI2\<1\>\/XI2\<0\>\/XI2\<1\>\/XI2\<0\>\/RR0_pos \
 N_SEL0\<0\>_XI2\<0\>\/XI2\<0\>\/XI2\<0\>\/XI2\<1\>\/XI2\<1\>\/XI2\<1\>\/XI2\<0\>\/XI2\<0\>\/RR0_pos \
 N_SEL0\<0\>_XI2\<0\>\/XI2\<0\>\/XI2\<0\>\/XI2\<1\>\/XI2\<1\>\/XI2\<1\>\/XI2\<1\>\/XI2\<0\>\/RR0_pos \
 N_SEL0\<0\>_XI2\<0\>\/XI2\<0\>\/XI2\<1\>\/XI2\<0\>\/XI2\<0\>\/XI2\<0\>\/XI2\<0\>\/XI2\<0\>\/RR0_pos \
 N_SEL0\<0\>_XI2\<1\>\/XI2\<1\>\/XI2\<0\>\/XI2\<0\>\/XI2\<1\>\/XI2\<1\>\/XI2\<1\>\/XI2\<0\>\/RR0_pos \
 N_SEL0\<0\>_XI2\<1\>\/XI2\<1\>\/XI2\<0\>\/XI2\<1\>\/XI2\<0\>\/XI2\<0\>\/XI2\<0\>\/XI2\<0\>\/RR0_pos \
 N_SEL0\<0\>_XI2\<1\>\/XI2\<1\>\/XI2\<0\>\/XI2\<1\>\/XI2\<0\>\/XI2\<0\>\/XI2\<1\>\/XI2\<0\>\/RR0_pos \
 N_SEL0\<0\>_XI2\<1\>\/XI2\<1\>\/XI2\<0\>\/XI2\<1\>\/XI2\<0\>\/XI2\<1\>\/XI2\<0\>\/XI2\<0\>\/RR0_pos \
 N_SEL0\<0\>_XI2\<1\>\/XI2\<1\>\/XI2\<0\>\/XI2\<1\>\/XI2\<0\>\/XI2\<1\>\/XI2\<1\>\/XI2\<0\>\/RR0_pos \
 N_SEL0\<0\>_XI2\<1\>\/XI2\<0\>\/XI2\<0\>\/XI2\<0\>\/XI2\<1\>\/XI2\<1\>\/XI2\<1\>\/XI2\<0\>\/RR0_pos \
 N_SEL0\<0\>_XI2\<1\>\/XI2\<0\>\/XI2\<0\>\/XI2\<1\>\/XI2\<0\>\/XI2\<0\>\/XI2\<0\>\/XI2\<0\>\/RR0_pos \
 N_SEL0\<0\>_XI2\<1\>\/XI2\<0\>\/XI2\<0\>\/XI2\<1\>\/XI2\<0\>\/XI2\<0\>\/XI2\<1\>\/XI2\<0\>\/RR0_pos \
 N_SEL0\<0\>_XI2\<1\>\/XI2\<0\>\/XI2\<0\>\/XI2\<1\>\/XI2\<0\>\/XI2\<1\>\/XI2\<0\>\/XI2\<0\>\/RR0_pos \
 N_SEL0\<0\>_XI2\<1\>\/XI2\<0\>\/XI2\<0\>\/XI2\<1\>\/XI2\<0\>\/XI2\<1\>\/XI2\<1\>\/XI2\<0\>\/RR0_pos \
 N_SEL0\<0\>_XI2\<0\>\/XI2\<1\>\/XI2\<0\>\/XI2\<0\>\/XI2\<1\>\/XI2\<1\>\/XI2\<1\>\/XI2\<0\>\/RR0_pos \
 N_SEL0\<0\>_XI2\<0\>\/XI2\<1\>\/XI2\<0\>\/XI2\<1\>\/XI2\<0\>\/XI2\<0\>\/XI2\<0\>\/XI2\<0\>\/RR0_pos \
 N_SEL0\<0\>_XI2\<0\>\/XI2\<1\>\/XI2\<0\>\/XI2\<1\>\/XI2\<0\>\/XI2\<0\>\/XI2\<1\>\/XI2\<0\>\/RR0_pos \
 N_SEL0\<0\>_XI2\<0\>\/XI2\<1\>\/XI2\<0\>\/XI2\<1\>\/XI2\<0\>\/XI2\<1\>\/XI2\<0\>\/XI2\<0\>\/RR0_pos \
 N_SEL0\<0\>_XI2\<0\>\/XI2\<1\>\/XI2\<0\>\/XI2\<1\>\/XI2\<0\>\/XI2\<1\>\/XI2\<1\>\/XI2\<0\>\/RR0_pos \
 N_SEL0\<0\>_XI2\<0\>\/XI2\<0\>\/XI2\<0\>\/XI2\<0\>\/XI2\<1\>\/XI2\<1\>\/XI2\<1\>\/XI2\<0\>\/RR0_pos \
 N_SEL0\<0\>_XI2\<0\>\/XI2\<0\>\/XI2\<0\>\/XI2\<1\>\/XI2\<0\>\/XI2\<0\>\/XI2\<0\>\/XI2\<0\>\/RR0_pos \
 N_SEL0\<0\>_XI2\<0\>\/XI2\<0\>\/XI2\<0\>\/XI2\<1\>\/XI2\<0\>\/XI2\<0\>\/XI2\<1\>\/XI2\<0\>\/RR0_pos \
 N_SEL0\<0\>_XI2\<0\>\/XI2\<0\>\/XI2\<0\>\/XI2\<1\>\/XI2\<0\>\/XI2\<1\>\/XI2\<0\>\/XI2\<0\>\/RR0_pos \
 N_SEL0\<0\>_XI2\<0\>\/XI2\<0\>\/XI2\<0\>\/XI2\<1\>\/XI2\<0\>\/XI2\<1\>\/XI2\<1\>\/XI2\<0\>\/RR0_pos \
 N_SEL0\<0\>_XI2\<1\>\/XI2\<1\>\/XI2\<0\>\/XI2\<0\>\/XI2\<0\>\/XI2\<1\>\/XI2\<0\>\/XI2\<0\>\/RR0_pos \
 N_SEL0\<0\>_XI2\<1\>\/XI2\<1\>\/XI2\<0\>\/XI2\<0\>\/XI2\<0\>\/XI2\<1\>\/XI2\<1\>\/XI2\<0\>\/RR0_pos \
 N_SEL0\<0\>_XI2\<1\>\/XI2\<1\>\/XI2\<0\>\/XI2\<0\>\/XI2\<1\>\/XI2\<0\>\/XI2\<0\>\/XI2\<0\>\/RR0_pos \
 N_SEL0\<0\>_XI2\<1\>\/XI2\<1\>\/XI2\<0\>\/XI2\<0\>\/XI2\<1\>\/XI2\<0\>\/XI2\<1\>\/XI2\<0\>\/RR0_pos \
 N_SEL0\<0\>_XI2\<1\>\/XI2\<1\>\/XI2\<0\>\/XI2\<0\>\/XI2\<1\>\/XI2\<1\>\/XI2\<0\>\/XI2\<0\>\/RR0_pos \
 N_SEL0\<0\>_XI2\<1\>\/XI2\<0\>\/XI2\<0\>\/XI2\<0\>\/XI2\<0\>\/XI2\<1\>\/XI2\<0\>\/XI2\<0\>\/RR0_pos \
 N_SEL0\<0\>_XI2\<1\>\/XI2\<0\>\/XI2\<0\>\/XI2\<0\>\/XI2\<0\>\/XI2\<1\>\/XI2\<1\>\/XI2\<0\>\/RR0_pos \
 N_SEL0\<0\>_XI2\<1\>\/XI2\<0\>\/XI2\<0\>\/XI2\<0\>\/XI2\<1\>\/XI2\<0\>\/XI2\<0\>\/XI2\<0\>\/RR0_pos \
 N_SEL0\<0\>_XI2\<1\>\/XI2\<0\>\/XI2\<0\>\/XI2\<0\>\/XI2\<1\>\/XI2\<0\>\/XI2\<1\>\/XI2\<0\>\/RR0_pos \
 N_SEL0\<0\>_XI2\<1\>\/XI2\<0\>\/XI2\<0\>\/XI2\<0\>\/XI2\<1\>\/XI2\<1\>\/XI2\<0\>\/XI2\<0\>\/RR0_pos \
 N_SEL0\<0\>_XI2\<0\>\/XI2\<1\>\/XI2\<0\>\/XI2\<0\>\/XI2\<0\>\/XI2\<1\>\/XI2\<0\>\/XI2\<0\>\/RR0_pos \
 N_SEL0\<0\>_XI2\<0\>\/XI2\<1\>\/XI2\<0\>\/XI2\<0\>\/XI2\<0\>\/XI2\<1\>\/XI2\<1\>\/XI2\<0\>\/RR0_pos \
 N_SEL0\<0\>_XI2\<0\>\/XI2\<1\>\/XI2\<0\>\/XI2\<0\>\/XI2\<1\>\/XI2\<0\>\/XI2\<0\>\/XI2\<0\>\/RR0_pos \
 N_SEL0\<0\>_XI2\<0\>\/XI2\<1\>\/XI2\<0\>\/XI2\<0\>\/XI2\<1\>\/XI2\<0\>\/XI2\<1\>\/XI2\<0\>\/RR0_pos \
 N_SEL0\<0\>_XI2\<0\>\/XI2\<1\>\/XI2\<0\>\/XI2\<0\>\/XI2\<1\>\/XI2\<1\>\/XI2\<0\>\/XI2\<0\>\/RR0_pos \
 N_SEL0\<0\>_XI2\<0\>\/XI2\<0\>\/XI2\<0\>\/XI2\<0\>\/XI2\<0\>\/XI2\<1\>\/XI2\<0\>\/XI2\<0\>\/RR0_pos \
 N_SEL0\<0\>_XI2\<0\>\/XI2\<0\>\/XI2\<0\>\/XI2\<0\>\/XI2\<0\>\/XI2\<1\>\/XI2\<1\>\/XI2\<0\>\/RR0_pos \
 N_SEL0\<0\>_XI2\<0\>\/XI2\<0\>\/XI2\<0\>\/XI2\<0\>\/XI2\<1\>\/XI2\<0\>\/XI2\<0\>\/XI2\<0\>\/RR0_pos \
 N_SEL0\<0\>_XI2\<0\>\/XI2\<0\>\/XI2\<0\>\/XI2\<0\>\/XI2\<1\>\/XI2\<0\>\/XI2\<1\>\/XI2\<0\>\/RR0_pos \
 N_SEL0\<0\>_XI2\<0\>\/XI2\<0\>\/XI2\<0\>\/XI2\<0\>\/XI2\<1\>\/XI2\<1\>\/XI2\<0\>\/XI2\<0\>\/RR0_pos \
 N_SEL0\<0\>_XI2\<1\>\/XI2\<1\>\/XI2\<0\>\/XI2\<0\>\/XI2\<0\>\/XI2\<0\>\/XI2\<0\>\/XI2\<0\>\/RR0_pos \
 N_SEL0\<0\>_XI2\<1\>\/XI2\<1\>\/XI2\<0\>\/XI2\<0\>\/XI2\<0\>\/XI2\<0\>\/XI2\<1\>\/XI2\<0\>\/RR0_pos \
 N_SEL0\<0\>_XI2\<1\>\/XI2\<0\>\/XI2\<0\>\/XI2\<0\>\/XI2\<0\>\/XI2\<0\>\/XI2\<0\>\/XI2\<0\>\/RR0_pos \
 N_SEL0\<0\>_XI2\<1\>\/XI2\<0\>\/XI2\<0\>\/XI2\<0\>\/XI2\<0\>\/XI2\<0\>\/XI2\<1\>\/XI2\<0\>\/RR0_pos \
 N_SEL0\<0\>_XI2\<0\>\/XI2\<1\>\/XI2\<0\>\/XI2\<0\>\/XI2\<0\>\/XI2\<0\>\/XI2\<0\>\/XI2\<0\>\/RR0_pos \
 N_SEL0\<0\>_XI2\<0\>\/XI2\<1\>\/XI2\<0\>\/XI2\<0\>\/XI2\<0\>\/XI2\<0\>\/XI2\<1\>\/XI2\<0\>\/RR0_pos \
 N_SEL0\<0\>_XI2\<0\>\/XI2\<0\>\/XI2\<0\>\/XI2\<0\>\/XI2\<0\>\/XI2\<0\>\/XI2\<0\>\/XI2\<0\>\/RR0_pos \
 N_SEL0\<0\>_XI2\<0\>\/XI2\<0\>\/XI2\<0\>\/XI2\<0\>\/XI2\<0\>\/XI2\<0\>\/XI2\<1\>\/XI2\<0\>\/RR0_pos \
 SEL0\<0\> SEL0\<0\> SEL0\<0\> SEL0\<0\> SEL0\<0\> SEL0\<0\> SEL0\<0\> \
 SEL0\<0\> SEL0\<0\> SEL0\<0\> SEL0\<0\> SEL0\<0\> SEL0\<0\> SEL0\<0\> \
 SEL0\<0\> SEL0\<0\> SEL0\<0\> SEL0\<0\> SEL0\<0\> SEL0\<0\> SEL0\<0\> \
 SEL0\<0\> SEL0\<0\> SEL0\<0\> SEL0\<0\> SEL0\<0\> SEL0\<0\> SEL0\<0\> \
 SEL0\<0\> SEL0\<0\> SEL0\<0\> SEL0\<0\> SEL0\<0\> SEL0\<0\> SEL0\<0\> \
 SEL0\<0\> SEL0\<0\> SEL0\<0\> SEL0\<0\> SEL0\<0\> SEL0\<0\> SEL0\<0\> \
 SEL0\<0\> SEL0\<0\> SEL0\<0\> SEL0\<0\> SEL0\<0\> SEL0\<0\> SEL0\<0\> \
 SEL0\<0\> SEL0\<0\> SEL0\<0\> SEL0\<0\> SEL0\<0\> SEL0\<0\> SEL0\<0\> \
 SEL0\<0\> SEL0\<0\> SEL0\<0\> SEL0\<0\> SEL0\<0\> SEL0\<0\> SEL0\<0\> \
 SEL0\<0\> SEL0\<0\> SEL0\<0\> SEL0\<0\> SEL0\<0\> SEL0\<0\> SEL0\<0\> \
 SEL0\<0\> SEL0\<0\> SEL0\<0\> SEL0\<0\> SEL0\<0\> SEL0\<0\> SEL0\<0\> \
 SEL0\<0\> SEL0\<0\> SEL0\<0\> SEL0\<0\> SEL0\<0\> SEL0\<0\> SEL0\<0\> \
 SEL0\<0\> SEL0\<0\> SEL0\<0\> SEL0\<0\> SEL0\<0\> SEL0\<0\> SEL0\<0\> \
 SEL0\<0\> SEL0\<0\> SEL0\<0\> SEL0\<0\> SEL0\<0\> SEL0\<0\> SEL0\<0\> \
 SEL0\<0\> SEL0\<0\> SEL0\<0\> SEL0\<0\> SEL0\<0\> SEL0\<0\> SEL0\<0\> \
 SEL0\<0\> SEL0\<0\> SEL0\<0\> SEL0\<0\> SEL0\<0\> SEL0\<0\> SEL0\<0\> \
 SEL0\<0\> SEL0\<0\> SEL0\<0\> SEL0\<0\> SEL0\<0\> SEL0\<0\> SEL0\<0\> \
 SEL0\<0\> SEL0\<0\> SEL0\<0\> SEL0\<0\> SEL0\<0\> SEL0\<0\> SEL0\<0\> \
 SEL0\<0\> SEL0\<0\> )  PM_POST_L8_256T8_PEX2\%SEL0\<0\>
x_PM_POST_L8_256T8_PEX2\%SEL1\<1\> ( \
 N_SEL1\<1\>_XI2\<1\>\/XI2\<1\>\/XI2\<1\>\/XI2\<1\>\/XI2\<0\>\/XI2\<1\>\/XI2\<1\>\/XI2\<0\>\/RR1_pos \
 N_SEL1\<1\>_XI2\<1\>\/XI2\<1\>\/XI2\<1\>\/XI2\<1\>\/XI2\<0\>\/XI2\<1\>\/XI2\<1\>\/XI2\<1\>\/RR1_pos \
 N_SEL1\<1\>_XI2\<1\>\/XI2\<1\>\/XI2\<1\>\/XI2\<1\>\/XI2\<1\>\/XI2\<0\>\/XI2\<1\>\/XI2\<0\>\/RR1_pos \
 N_SEL1\<1\>_XI2\<1\>\/XI2\<1\>\/XI2\<1\>\/XI2\<1\>\/XI2\<1\>\/XI2\<0\>\/XI2\<1\>\/XI2\<1\>\/RR1_pos \
 N_SEL1\<1\>_XI2\<1\>\/XI2\<1\>\/XI2\<1\>\/XI2\<1\>\/XI2\<1\>\/XI2\<1\>\/XI2\<1\>\/XI2\<0\>\/RR1_pos \