// File: /home/edauser0/ayigit/RowDecoder_Project/CDS_VISIO/project_pex/Post_L2_256t2_Text/spectreText/spectre.scs.POST_L2_256T2_EX.pxi
// Created: Tue Dec 21 12:19:14 2021
// 
simulator lang=spectre
x_PM_POST_L2_256T2_EX\%SEL1\<15\> ( N_SEL1\<15\>_XI2\<15\>\/XI2\<15\>\/RR1_pos \
 SEL1\<15\> N_SEL1\<15\>_XI2\<15\>\/XI2\<14\>\/RR1_pos SEL1\<15\> \
 N_SEL1\<15\>_XI2\<15\>\/XI2\<13\>\/RR1_pos SEL1\<15\> \
 N_SEL1\<15\>_XI2\<15\>\/XI2\<12\>\/RR1_pos SEL1\<15\> \
 N_SEL1\<15\>_XI2\<15\>\/XI2\<11\>\/RR1_pos SEL1\<15\> \
 N_SEL1\<15\>_XI2\<15\>\/XI2\<10\>\/RR1_pos SEL1\<15\> \
 N_SEL1\<15\>_XI2\<15\>\/XI2\<9\>\/RR1_pos SEL1\<15\> \
 N_SEL1\<15\>_XI2\<15\>\/XI2\<8\>\/RR1_pos SEL1\<15\> \
 N_SEL1\<15\>_XI2\<15\>\/XI2\<7\>\/RR1_pos SEL1\<15\> \
 N_SEL1\<15\>_XI2\<15\>\/XI2\<6\>\/RR1_pos SEL1\<15\> \
 N_SEL1\<15\>_XI2\<15\>\/XI2\<5\>\/RR1_pos SEL1\<15\> \
 N_SEL1\<15\>_XI2\<15\>\/XI2\<4\>\/RR1_pos SEL1\<15\> \
 N_SEL1\<15\>_XI2\<15\>\/XI2\<3\>\/RR1_pos SEL1\<15\> \
 N_SEL1\<15\>_XI2\<15\>\/XI2\<2\>\/RR1_pos SEL1\<15\> \
 N_SEL1\<15\>_XI2\<15\>\/XI2\<1\>\/RR1_pos SEL1\<15\> \
 N_SEL1\<15\>_XI2\<15\>\/XI2\<0\>\/RR1_pos SEL1\<15\> )  \
 PM_POST_L2_256T2_EX\%SEL1\<15\>
x_PM_POST_L2_256T2_EX\%WLSEL\<511\> ( \
 N_WLSEL\<511\>_XI2\<15\>\/XI2\<15\>\/RR1_neg WLSEL\<511\> )  \
 PM_POST_L2_256T2_EX\%WLSEL\<511\>
x_PM_POST_L2_256T2_EX\%SEL0\<15\> ( N_SEL0\<15\>_XI2\<15\>\/XI2\<15\>\/RR0_pos \
 SEL0\<15\> N_SEL0\<15\>_XI2\<14\>\/XI2\<15\>\/RR0_pos SEL0\<15\> \
 N_SEL0\<15\>_XI2\<13\>\/XI2\<15\>\/RR0_pos SEL0\<15\> \
 N_SEL0\<15\>_XI2\<12\>\/XI2\<15\>\/RR0_pos SEL0\<15\> \
 N_SEL0\<15\>_XI2\<11\>\/XI2\<15\>\/RR0_pos SEL0\<15\> \
 N_SEL0\<15\>_XI2\<10\>\/XI2\<15\>\/RR0_pos SEL0\<15\> \
 N_SEL0\<15\>_XI2\<9\>\/XI2\<15\>\/RR0_pos SEL0\<15\> \
 N_SEL0\<15\>_XI2\<8\>\/XI2\<15\>\/RR0_pos SEL0\<15\> \
 N_SEL0\<15\>_XI2\<7\>\/XI2\<15\>\/RR0_pos SEL0\<15\> \
 N_SEL0\<15\>_XI2\<6\>\/XI2\<15\>\/RR0_pos SEL0\<15\> \
 N_SEL0\<15\>_XI2\<5\>\/XI2\<15\>\/RR0_pos SEL0\<15\> \
 N_SEL0\<15\>_XI2\<4\>\/XI2\<15\>\/RR0_pos SEL0\<15\> \
 N_SEL0\<15\>_XI2\<3\>\/XI2\<15\>\/RR0_pos SEL0\<15\> \
 N_SEL0\<15\>_XI2\<2\>\/XI2\<15\>\/RR0_pos SEL0\<15\> \
 N_SEL0\<15\>_XI2\<1\>\/XI2\<15\>\/RR0_pos SEL0\<15\> \
 N_SEL0\<15\>_XI2\<0\>\/XI2\<15\>\/RR0_pos SEL0\<15\> )  \
 PM_POST_L2_256T2_EX\%SEL0\<15\>
x_PM_POST_L2_256T2_EX\%WLSEL\<510\> ( \
 N_WLSEL\<510\>_XI2\<15\>\/XI2\<15\>\/RR0_neg WLSEL\<510\> )  \
 PM_POST_L2_256T2_EX\%WLSEL\<510\>
x_PM_POST_L2_256T2_EX\%WLSEL\<509\> ( \
 N_WLSEL\<509\>_XI2\<15\>\/XI2\<14\>\/RR1_neg WLSEL\<509\> )  \
 PM_POST_L2_256T2_EX\%WLSEL\<509\>
x_PM_POST_L2_256T2_EX\%SEL0\<14\> ( N_SEL0\<14\>_XI2\<15\>\/XI2\<14\>\/RR0_pos \
 SEL0\<14\> N_SEL0\<14\>_XI2\<14\>\/XI2\<14\>\/RR0_pos SEL0\<14\> \
 N_SEL0\<14\>_XI2\<13\>\/XI2\<14\>\/RR0_pos SEL0\<14\> \
 N_SEL0\<14\>_XI2\<12\>\/XI2\<14\>\/RR0_pos SEL0\<14\> \
 N_SEL0\<14\>_XI2\<11\>\/XI2\<14\>\/RR0_pos SEL0\<14\> \
 N_SEL0\<14\>_XI2\<10\>\/XI2\<14\>\/RR0_pos SEL0\<14\> \
 N_SEL0\<14\>_XI2\<9\>\/XI2\<14\>\/RR0_pos SEL0\<14\> \
 N_SEL0\<14\>_XI2\<8\>\/XI2\<14\>\/RR0_pos SEL0\<14\> \
 N_SEL0\<14\>_XI2\<7\>\/XI2\<14\>\/RR0_pos SEL0\<14\> \
 N_SEL0\<14\>_XI2\<6\>\/XI2\<14\>\/RR0_pos SEL0\<14\> \
 N_SEL0\<14\>_XI2\<5\>\/XI2\<14\>\/RR0_pos SEL0\<14\> \
 N_SEL0\<14\>_XI2\<4\>\/XI2\<14\>\/RR0_pos SEL0\<14\> \
 N_SEL0\<14\>_XI2\<3\>\/XI2\<14\>\/RR0_pos SEL0\<14\> \
 N_SEL0\<14\>_XI2\<2\>\/XI2\<14\>\/RR0_pos SEL0\<14\> \
 N_SEL0\<14\>_XI2\<1\>\/XI2\<14\>\/RR0_pos SEL0\<14\> \
 N_SEL0\<14\>_XI2\<0\>\/XI2\<14\>\/RR0_pos SEL0\<14\> )  \
 PM_POST_L2_256T2_EX\%SEL0\<14\>
x_PM_POST_L2_256T2_EX\%WLSEL\<508\> ( \
 N_WLSEL\<508\>_XI2\<15\>\/XI2\<14\>\/RR0_neg WLSEL\<508\> )  \
 PM_POST_L2_256T2_EX\%WLSEL\<508\>
x_PM_POST_L2_256T2_EX\%WLSEL\<507\> ( \
 N_WLSEL\<507\>_XI2\<15\>\/XI2\<13\>\/RR1_neg WLSEL\<507\> )  \
 PM_POST_L2_256T2_EX\%WLSEL\<507\>
x_PM_POST_L2_256T2_EX\%SEL0\<13\> ( N_SEL0\<13\>_XI2\<15\>\/XI2\<13\>\/RR0_pos \
 SEL0\<13\> N_SEL0\<13\>_XI2\<14\>\/XI2\<13\>\/RR0_pos SEL0\<13\> \
 N_SEL0\<13\>_XI2\<13\>\/XI2\<13\>\/RR0_pos SEL0\<13\> \
 N_SEL0\<13\>_XI2\<12\>\/XI2\<13\>\/RR0_pos SEL0\<13\> \
 N_SEL0\<13\>_XI2\<11\>\/XI2\<13\>\/RR0_pos SEL0\<13\> \
 N_SEL0\<13\>_XI2\<10\>\/XI2\<13\>\/RR0_pos SEL0\<13\> \
 N_SEL0\<13\>_XI2\<9\>\/XI2\<13\>\/RR0_pos SEL0\<13\> \
 N_SEL0\<13\>_XI2\<8\>\/XI2\<13\>\/RR0_pos SEL0\<13\> \
 N_SEL0\<13\>_XI2\<7\>\/XI2\<13\>\/RR0_pos SEL0\<13\> \
 N_SEL0\<13\>_XI2\<6\>\/XI2\<13\>\/RR0_pos SEL0\<13\> \
 N_SEL0\<13\>_XI2\<5\>\/XI2\<13\>\/RR0_pos SEL0\<13\> \
 N_SEL0\<13\>_XI2\<4\>\/XI2\<13\>\/RR0_pos SEL0\<13\> \
 N_SEL0\<13\>_XI2\<3\>\/XI2\<13\>\/RR0_pos SEL0\<13\> \
 N_SEL0\<13\>_XI2\<2\>\/XI2\<13\>\/RR0_pos SEL0\<13\> \
 N_SEL0\<13\>_XI2\<1\>\/XI2\<13\>\/RR0_pos SEL0\<13\> \
 N_SEL0\<13\>_XI2\<0\>\/XI2\<13\>\/RR0_pos SEL0\<13\> )  \
 PM_POST_L2_256T2_EX\%SEL0\<13\>
x_PM_POST_L2_256T2_EX\%WLSEL\<506\> ( \
 N_WLSEL\<506\>_XI2\<15\>\/XI2\<13\>\/RR0_neg WLSEL\<506\> )  \
 PM_POST_L2_256T2_EX\%WLSEL\<506\>
x_PM_POST_L2_256T2_EX\%WLSEL\<505\> ( \
 N_WLSEL\<505\>_XI2\<15\>\/XI2\<12\>\/RR1_neg WLSEL\<505\> )  \
 PM_POST_L2_256T2_EX\%WLSEL\<505\>
x_PM_POST_L2_256T2_EX\%SEL0\<12\> ( N_SEL0\<12\>_XI2\<15\>\/XI2\<12\>\/RR0_pos \
 SEL0\<12\> N_SEL0\<12\>_XI2\<14\>\/XI2\<12\>\/RR0_pos SEL0\<12\> \
 N_SEL0\<12\>_XI2\<13\>\/XI2\<12\>\/RR0_pos SEL0\<12\> \
 N_SEL0\<12\>_XI2\<12\>\/XI2\<12\>\/RR0_pos SEL0\<12\> \
 N_SEL0\<12\>_XI2\<11\>\/XI2\<12\>\/RR0_pos SEL0\<12\> \
 N_SEL0\<12\>_XI2\<10\>\/XI2\<12\>\/RR0_pos SEL0\<12\> \
 N_SEL0\<12\>_XI2\<9\>\/XI2\<12\>\/RR0_pos SEL0\<12\> \
 N_SEL0\<12\>_XI2\<8\>\/XI2\<12\>\/RR0_pos SEL0\<12\> \
 N_SEL0\<12\>_XI2\<7\>\/XI2\<12\>\/RR0_pos SEL0\<12\> \
 N_SEL0\<12\>_XI2\<6\>\/XI2\<12\>\/RR0_pos SEL0\<12\> \
 N_SEL0\<12\>_XI2\<5\>\/XI2\<12\>\/RR0_pos SEL0\<12\> \
 N_SEL0\<12\>_XI2\<4\>\/XI2\<12\>\/RR0_pos SEL0\<12\> \
 N_SEL0\<12\>_XI2\<3\>\/XI2\<12\>\/RR0_pos SEL0\<12\> \
 N_SEL0\<12\>_XI2\<2\>\/XI2\<12\>\/RR0_pos SEL0\<12\> \
 N_SEL0\<12\>_XI2\<1\>\/XI2\<12\>\/RR0_pos SEL0\<12\> \
 N_SEL0\<12\>_XI2\<0\>\/XI2\<12\>\/RR0_pos SEL0\<12\> )  \
 PM_POST_L2_256T2_EX\%SEL0\<12\>
x_PM_POST_L2_256T2_EX\%WLSEL\<504\> ( \
 N_WLSEL\<504\>_XI2\<15\>\/XI2\<12\>\/RR0_neg WLSEL\<504\> )  \
 PM_POST_L2_256T2_EX\%WLSEL\<504\>
x_PM_POST_L2_256T2_EX\%WLSEL\<503\> ( \
 N_WLSEL\<503\>_XI2\<15\>\/XI2\<11\>\/RR1_neg WLSEL\<503\> )  \
 PM_POST_L2_256T2_EX\%WLSEL\<503\>
x_PM_POST_L2_256T2_EX\%SEL0\<11\> ( N_SEL0\<11\>_XI2\<15\>\/XI2\<11\>\/RR0_pos \
 SEL0\<11\> N_SEL0\<11\>_XI2\<14\>\/XI2\<11\>\/RR0_pos SEL0\<11\> \
 N_SEL0\<11\>_XI2\<13\>\/XI2\<11\>\/RR0_pos SEL0\<11\> \
 N_SEL0\<11\>_XI2\<12\>\/XI2\<11\>\/RR0_pos SEL0\<11\> \
 N_SEL0\<11\>_XI2\<11\>\/XI2\<11\>\/RR0_pos SEL0\<11\> \
 N_SEL0\<11\>_XI2\<10\>\/XI2\<11\>\/RR0_pos SEL0\<11\> \
 N_SEL0\<11\>_XI2\<9\>\/XI2\<11\>\/RR0_pos SEL0\<11\> \
 N_SEL0\<11\>_XI2\<8\>\/XI2\<11\>\/RR0_pos SEL0\<11\> \
 N_SEL0\<11\>_XI2\<7\>\/XI2\<11\>\/RR0_pos SEL0\<11\> \
 N_SEL0\<11\>_XI2\<6\>\/XI2\<11\>\/RR0_pos SEL0\<11\> \
 N_SEL0\<11\>_XI2\<5\>\/XI2\<11\>\/RR0_pos SEL0\<11\> \
 N_SEL0\<11\>_XI2\<4\>\/XI2\<11\>\/RR0_pos SEL0\<11\> \
 N_SEL0\<11\>_XI2\<3\>\/XI2\<11\>\/RR0_pos SEL0\<11\> \
 N_SEL0\<11\>_XI2\<2\>\/XI2\<11\>\/RR0_pos SEL0\<11\> \
 N_SEL0\<11\>_XI2\<1\>\/XI2\<11\>\/RR0_pos SEL0\<11\> \
 N_SEL0\<11\>_XI2\<0\>\/XI2\<11\>\/RR0_pos SEL0\<11\> )  \
 PM_POST_L2_256T2_EX\%SEL0\<11\>
x_PM_POST_L2_256T2_EX\%WLSEL\<502\> ( \
 N_WLSEL\<502\>_XI2\<15\>\/XI2\<11\>\/RR0_neg WLSEL\<502\> )  \
 PM_POST_L2_256T2_EX\%WLSEL\<502\>
x_PM_POST_L2_256T2_EX\%WLSEL\<501\> ( \
 N_WLSEL\<501\>_XI2\<15\>\/XI2\<10\>\/RR1_neg WLSEL\<501\> )  \
 PM_POST_L2_256T2_EX\%WLSEL\<501\>
x_PM_POST_L2_256T2_EX\%SEL0\<10\> ( N_SEL0\<10\>_XI2\<15\>\/XI2\<10\>\/RR0_pos \
 SEL0\<10\> N_SEL0\<10\>_XI2\<14\>\/XI2\<10\>\/RR0_pos SEL0\<10\> \
 N_SEL0\<10\>_XI2\<13\>\/XI2\<10\>\/RR0_pos SEL0\<10\> \
 N_SEL0\<10\>_XI2\<12\>\/XI2\<10\>\/RR0_pos SEL0\<10\> \
 N_SEL0\<10\>_XI2\<11\>\/XI2\<10\>\/RR0_pos SEL0\<10\> \
 N_SEL0\<10\>_XI2\<10\>\/XI2\<10\>\/RR0_pos SEL0\<10\> \
 N_SEL0\<10\>_XI2\<9\>\/XI2\<10\>\/RR0_pos SEL0\<10\> \
 N_SEL0\<10\>_XI2\<8\>\/XI2\<10\>\/RR0_pos SEL0\<10\> \
 N_SEL0\<10\>_XI2\<7\>\/XI2\<10\>\/RR0_pos SEL0\<10\> \
 N_SEL0\<10\>_XI2\<6\>\/XI2\<10\>\/RR0_pos SEL0\<10\> \
 N_SEL0\<10\>_XI2\<5\>\/XI2\<10\>\/RR0_pos SEL0\<10\> \
 N_SEL0\<10\>_XI2\<4\>\/XI2\<10\>\/RR0_pos SEL0\<10\> \
 N_SEL0\<10\>_XI2\<3\>\/XI2\<10\>\/RR0_pos SEL0\<10\> \
 N_SEL0\<10\>_XI2\<2\>\/XI2\<10\>\/RR0_pos SEL0\<10\> \
 N_SEL0\<10\>_XI2\<1\>\/XI2\<10\>\/RR0_pos SEL0\<10\> \
 N_SEL0\<10\>_XI2\<0\>\/XI2\<10\>\/RR0_pos SEL0\<10\> )  \
 PM_POST_L2_256T2_EX\%SEL0\<10\>
x_PM_POST_L2_256T2_EX\%WLSEL\<500\> ( \
 N_WLSEL\<500\>_XI2\<15\>\/XI2\<10\>\/RR0_neg WLSEL\<500\> )  \
 PM_POST_L2_256T2_EX\%WLSEL\<500\>
x_PM_POST_L2_256T2_EX\%WLSEL\<499\> ( \
 N_WLSEL\<499\>_XI2\<15\>\/XI2\<9\>\/RR1_neg WLSEL\<499\> )  \
 PM_POST_L2_256T2_EX\%WLSEL\<499\>
x_PM_POST_L2_256T2_EX\%SEL0\<9\> ( N_SEL0\<9\>_XI2\<15\>\/XI2\<9\>\/RR0_pos \
 SEL0\<9\> N_SEL0\<9\>_XI2\<14\>\/XI2\<9\>\/RR0_pos SEL0\<9\> \
 N_SEL0\<9\>_XI2\<13\>\/XI2\<9\>\/RR0_pos SEL0\<9\> \
 N_SEL0\<9\>_XI2\<12\>\/XI2\<9\>\/RR0_pos SEL0\<9\> \
 N_SEL0\<9\>_XI2\<11\>\/XI2\<9\>\/RR0_pos SEL0\<9\> \
 N_SEL0\<9\>_XI2\<10\>\/XI2\<9\>\/RR0_pos SEL0\<9\> \
 N_SEL0\<9\>_XI2\<9\>\/XI2\<9\>\/RR0_pos SEL0\<9\> \
 N_SEL0\<9\>_XI2\<8\>\/XI2\<9\>\/RR0_pos SEL0\<9\> \
 N_SEL0\<9\>_XI2\<7\>\/XI2\<9\>\/RR0_pos SEL0\<9\> \
 N_SEL0\<9\>_XI2\<6\>\/XI2\<9\>\/RR0_pos SEL0\<9\> \
 N_SEL0\<9\>_XI2\<5\>\/XI2\<9\>\/RR0_pos SEL0\<9\> \
 N_SEL0\<9\>_XI2\<4\>\/XI2\<9\>\/RR0_pos SEL0\<9\> \
 N_SEL0\<9\>_XI2\<3\>\/XI2\<9\>\/RR0_pos SEL0\<9\> \
 N_SEL0\<9\>_XI2\<2\>\/XI2\<9\>\/RR0_pos SEL0\<9\> \
 N_SEL0\<9\>_XI2\<1\>\/XI2\<9\>\/RR0_pos SEL0\<9\> \
 N_SEL0\<9\>_XI2\<0\>\/XI2\<9\>\/RR0_pos SEL0\<9\> )  \
 PM_POST_L2_256T2_EX\%SEL0\<9\>
x_PM_POST_L2_256T2_EX\%WLSEL\<498\> ( \
 N_WLSEL\<498\>_XI2\<15\>\/XI2\<9\>\/RR0_neg WLSEL\<498\> )  \
 PM_POST_L2_256T2_EX\%WLSEL\<498\>
x_PM_POST_L2_256T2_EX\%WLSEL\<497\> ( \
 N_WLSEL\<497\>_XI2\<15\>\/XI2\<8\>\/RR1_neg WLSEL\<497\> )  \
 PM_POST_L2_256T2_EX\%WLSEL\<497\>
x_PM_POST_L2_256T2_EX\%SEL0\<8\> ( N_SEL0\<8\>_XI2\<15\>\/XI2\<8\>\/RR0_pos \
 SEL0\<8\> N_SEL0\<8\>_XI2\<14\>\/XI2\<8\>\/RR0_pos SEL0\<8\> \
 N_SEL0\<8\>_XI2\<13\>\/XI2\<8\>\/RR0_pos SEL0\<8\> \
 N_SEL0\<8\>_XI2\<12\>\/XI2\<8\>\/RR0_pos SEL0\<8\> \
 N_SEL0\<8\>_XI2\<11\>\/XI2\<8\>\/RR0_pos SEL0\<8\> \
 N_SEL0\<8\>_XI2\<10\>\/XI2\<8\>\/RR0_pos SEL0\<8\> \
 N_SEL0\<8\>_XI2\<9\>\/XI2\<8\>\/RR0_pos SEL0\<8\> \
 N_SEL0\<8\>_XI2\<8\>\/XI2\<8\>\/RR0_pos SEL0\<8\> \
 N_SEL0\<8\>_XI2\<7\>\/XI2\<8\>\/RR0_pos SEL0\<8\> \
 N_SEL0\<8\>_XI2\<6\>\/XI2\<8\>\/RR0_pos SEL0\<8\> \
 N_SEL0\<8\>_XI2\<5\>\/XI2\<8\>\/RR0_pos SEL0\<8\> \
 N_SEL0\<8\>_XI2\<4\>\/XI2\<8\>\/RR0_pos SEL0\<8\> \
 N_SEL0\<8\>_XI2\<3\>\/XI2\<8\>\/RR0_pos SEL0\<8\> \
 N_SEL0\<8\>_XI2\<2\>\/XI2\<8\>\/RR0_pos SEL0\<8\> \
 N_SEL0\<8\>_XI2\<1\>\/XI2\<8\>\/RR0_pos SEL0\<8\> \
 N_SEL0\<8\>_XI2\<0\>\/XI2\<8\>\/RR0_pos SEL0\<8\> )  \
 PM_POST_L2_256T2_EX\%SEL0\<8\>
x_PM_POST_L2_256T2_EX\%WLSEL\<496\> ( \
 N_WLSEL\<496\>_XI2\<15\>\/XI2\<8\>\/RR0_neg WLSEL\<496\> )  \
 PM_POST_L2_256T2_EX\%WLSEL\<496\>
x_PM_POST_L2_256T2_EX\%WLSEL\<495\> ( \
 N_WLSEL\<495\>_XI2\<15\>\/XI2\<7\>\/RR1_neg WLSEL\<495\> )  \
 PM_POST_L2_256T2_EX\%WLSEL\<495\>
x_PM_POST_L2_256T2_EX\%SEL0\<7\> ( N_SEL0\<7\>_XI2\<15\>\/XI2\<7\>\/RR0_pos \
 SEL0\<7\> N_SEL0\<7\>_XI2\<14\>\/XI2\<7\>\/RR0_pos SEL0\<7\> \
 N_SEL0\<7\>_XI2\<13\>\/XI2\<7\>\/RR0_pos SEL0\<7\> \
 N_SEL0\<7\>_XI2\<12\>\/XI2\<7\>\/RR0_pos SEL0\<7\> \
 N_SEL0\<7\>_XI2\<11\>\/XI2\<7\>\/RR0_pos SEL0\<7\> \
 N_SEL0\<7\>_XI2\<10\>\/XI2\<7\>\/RR0_pos SEL0\<7\> \
 N_SEL0\<7\>_XI2\<9\>\/XI2\<7\>\/RR0_pos SEL0\<7\> \
 N_SEL0\<7\>_XI2\<8\>\/XI2\<7\>\/RR0_pos SEL0\<7\> \
 N_SEL0\<7\>_XI2\<7\>\/XI2\<7\>\/RR0_pos SEL0\<7\> \
 N_SEL0\<7\>_XI2\<6\>\/XI2\<7\>\/RR0_pos SEL0\<7\> \
 N_SEL0\<7\>_XI2\<5\>\/XI2\<7\>\/RR0_pos SEL0\<7\> \
 N_SEL0\<7\>_XI2\<4\>\/XI2\<7\>\/RR0_pos SEL0\<7\> \
 N_SEL0\<7\>_XI2\<3\>\/XI2\<7\>\/RR0_pos SEL0\<7\> \
 N_SEL0\<7\>_XI2\<2\>\/XI2\<7\>\/RR0_pos SEL0\<7\> \
 N_SEL0\<7\>_XI2\<1\>\/XI2\<7\>\/RR0_pos SEL0\<7\> \
 N_SEL0\<7\>_XI2\<0\>\/XI2\<7\>\/RR0_pos SEL0\<7\> )  \
 PM_POST_L2_256T2_EX\%SEL0\<7\>
x_PM_POST_L2_256T2_EX\%WLSEL\<494\> ( \
 N_WLSEL\<494\>_XI2\<15\>\/XI2\<7\>\/RR0_neg WLSEL\<494\> )  \
 PM_POST_L2_256T2_EX\%WLSEL\<494\>
x_PM_POST_L2_256T2_EX\%WLSEL\<493\> ( \
 N_WLSEL\<493\>_XI2\<15\>\/XI2\<6\>\/RR1_neg WLSEL\<493\> )  \
 PM_POST_L2_256T2_EX\%WLSEL\<493\>
x_PM_POST_L2_256T2_EX\%SEL0\<6\> ( N_SEL0\<6\>_XI2\<15\>\/XI2\<6\>\/RR0_pos \
 SEL0\<6\> N_SEL0\<6\>_XI2\<14\>\/XI2\<6\>\/RR0_pos SEL0\<6\> \
 N_SEL0\<6\>_XI2\<13\>\/XI2\<6\>\/RR0_pos SEL0\<6\> \
 N_SEL0\<6\>_XI2\<12\>\/XI2\<6\>\/RR0_pos SEL0\<6\> \
 N_SEL0\<6\>_XI2\<11\>\/XI2\<6\>\/RR0_pos SEL0\<6\> \
 N_SEL0\<6\>_XI2\<10\>\/XI2\<6\>\/RR0_pos SEL0\<6\> \
 N_SEL0\<6\>_XI2\<9\>\/XI2\<6\>\/RR0_pos SEL0\<6\> \
 N_SEL0\<6\>_XI2\<8\>\/XI2\<6\>\/RR0_pos SEL0\<6\> \
 N_SEL0\<6\>_XI2\<7\>\/XI2\<6\>\/RR0_pos SEL0\<6\> \
 N_SEL0\<6\>_XI2\<6\>\/XI2\<6\>\/RR0_pos SEL0\<6\> \
 N_SEL0\<6\>_XI2\<5\>\/XI2\<6\>\/RR0_pos SEL0\<6\> \
 N_SEL0\<6\>_XI2\<4\>\/XI2\<6\>\/RR0_pos SEL0\<6\> \
 N_SEL0\<6\>_XI2\<3\>\/XI2\<6\>\/RR0_pos SEL0\<6\> \
 N_SEL0\<6\>_XI2\<2\>\/XI2\<6\>\/RR0_pos SEL0\<6\> \
 N_SEL0\<6\>_XI2\<1\>\/XI2\<6\>\/RR0_pos SEL0\<6\> \
 N_SEL0\<6\>_XI2\<0\>\/XI2\<6\>\/RR0_pos SEL0\<6\> )  \
 PM_POST_L2_256T2_EX\%SEL0\<6\>
x_PM_POST_L2_256T2_EX\%WLSEL\<492\> ( \
 N_WLSEL\<492\>_XI2\<15\>\/XI2\<6\>\/RR0_neg WLSEL\<492\> )  \
 PM_POST_L2_256T2_EX\%WLSEL\<492\>
x_PM_POST_L2_256T2_EX\%WLSEL\<491\> ( \
 N_WLSEL\<491\>_XI2\<15\>\/XI2\<5\>\/RR1_neg WLSEL\<491\> )  \
 PM_POST_L2_256T2_EX\%WLSEL\<491\>
x_PM_POST_L2_256T2_EX\%SEL0\<5\> ( N_SEL0\<5\>_XI2\<15\>\/XI2\<5\>\/RR0_pos \
 SEL0\<5\> N_SEL0\<5\>_XI2\<14\>\/XI2\<5\>\/RR0_pos SEL0\<5\> \
 N_SEL0\<5\>_XI2\<13\>\/XI2\<5\>\/RR0_pos SEL0\<5\> \
 N_SEL0\<5\>_XI2\<12\>\/XI2\<5\>\/RR0_pos SEL0\<5\> \
 N_SEL0\<5\>_XI2\<11\>\/XI2\<5\>\/RR0_pos SEL0\<5\> \
 N_SEL0\<5\>_XI2\<10\>\/XI2\<5\>\/RR0_pos SEL0\<5\> \
 N_SEL0\<5\>_XI2\<9\>\/XI2\<5\>\/RR0_pos SEL0\<5\> \
 N_SEL0\<5\>_XI2\<8\>\/XI2\<5\>\/RR0_pos SEL0\<5\> \
 N_SEL0\<5\>_XI2\<7\>\/XI2\<5\>\/RR0_pos SEL0\<5\> \
 N_SEL0\<5\>_XI2\<6\>\/XI2\<5\>\/RR0_pos SEL0\<5\> \
 N_SEL0\<5\>_XI2\<5\>\/XI2\<5\>\/RR0_pos SEL0\<5\> \
 N_SEL0\<5\>_XI2\<4\>\/XI2\<5\>\/RR0_pos SEL0\<5\> \
 N_SEL0\<5\>_XI2\<3\>\/XI2\<5\>\/RR0_pos SEL0\<5\> \
 N_SEL0\<5\>_XI2\<2\>\/XI2\<5\>\/RR0_pos SEL0\<5\> \
 N_SEL0\<5\>_XI2\<1\>\/XI2\<5\>\/RR0_pos SEL0\<5\> \
 N_SEL0\<5\>_XI2\<0\>\/XI2\<5\>\/RR0_pos SEL0\<5\> )  \
 PM_POST_L2_256T2_EX\%SEL0\<5\>
x_PM_POST_L2_256T2_EX\%WLSEL\<490\> ( \
 N_WLSEL\<490\>_XI2\<15\>\/XI2\<5\>\/RR0_neg WLSEL\<490\> )  \
 PM_POST_L2_256T2_EX\%WLSEL\<490\>
x_PM_POST_L2_256T2_EX\%WLSEL\<489\> ( \
 N_WLSEL\<489\>_XI2\<15\>\/XI2\<4\>\/RR1_neg WLSEL\<489\> )  \
 PM_POST_L2_256T2_EX\%WLSEL\<489\>
x_PM_POST_L2_256T2_EX\%SEL0\<4\> ( N_SEL0\<4\>_XI2\<15\>\/XI2\<4\>\/RR0_pos \
 SEL0\<4\> N_SEL0\<4\>_XI2\<14\>\/XI2\<4\>\/RR0_pos SEL0\<4\> \
 N_SEL0\<4\>_XI2\<13\>\/XI2\<4\>\/RR0_pos SEL0\<4\> \
 N_SEL0\<4\>_XI2\<12\>\/XI2\<4\>\/RR0_pos SEL0\<4\> \
 N_SEL0\<4\>_XI2\<11\>\/XI2\<4\>\/RR0_pos SEL0\<4\> \
 N_SEL0\<4\>_XI2\<10\>\/XI2\<4\>\/RR0_pos SEL0\<4\> \
 N_SEL0\<4\>_XI2\<9\>\/XI2\<4\>\/RR0_pos SEL0\<4\> \
 N_SEL0\<4\>_XI2\<8\>\/XI2\<4\>\/RR0_pos SEL0\<4\> \
 N_SEL0\<4\>_XI2\<7\>\/XI2\<4\>\/RR0_pos SEL0\<4\> \
 N_SEL0\<4\>_XI2\<6\>\/XI2\<4\>\/RR0_pos SEL0\<4\> \
 N_SEL0\<4\>_XI2\<5\>\/XI2\<4\>\/RR0_pos SEL0\<4\> \
 N_SEL0\<4\>_XI2\<4\>\/XI2\<4\>\/RR0_pos SEL0\<4\> \
 N_SEL0\<4\>_XI2\<3\>\/XI2\<4\>\/RR0_pos SEL0\<4\> \
 N_SEL0\<4\>_XI2\<2\>\/XI2\<4\>\/RR0_pos SEL0\<4\> \
 N_SEL0\<4\>_XI2\<1\>\/XI2\<4\>\/RR0_pos SEL0\<4\> \
 N_SEL0\<4\>_XI2\<0\>\/XI2\<4\>\/RR0_pos SEL0\<4\> )  \
 PM_POST_L2_256T2_EX\%SEL0\<4\>
x_PM_POST_L2_256T2_EX\%WLSEL\<488\> ( \
 N_WLSEL\<488\>_XI2\<15\>\/XI2\<4\>\/RR0_neg WLSEL\<488\> )  \
 PM_POST_L2_256T2_EX\%WLSEL\<488\>
x_PM_POST_L2_256T2_EX\%WLSEL\<487\> ( \
 N_WLSEL\<487\>_XI2\<15\>\/XI2\<3\>\/RR1_neg WLSEL\<487\> )  \
 PM_POST_L2_256T2_EX\%WLSEL\<487\>
x_PM_POST_L2_256T2_EX\%SEL0\<3\> ( N_SEL0\<3\>_XI2\<15\>\/XI2\<3\>\/RR0_pos \
 SEL0\<3\> N_SEL0\<3\>_XI2\<14\>\/XI2\<3\>\/RR0_pos SEL0\<3\> \
 N_SEL0\<3\>_XI2\<13\>\/XI2\<3\>\/RR0_pos SEL0\<3\> \
 N_SEL0\<3\>_XI2\<12\>\/XI2\<3\>\/RR0_pos SEL0\<3\> \
 N_SEL0\<3\>_XI2\<11\>\/XI2\<3\>\/RR0_pos SEL0\<3\> \
 N_SEL0\<3\>_XI2\<10\>\/XI2\<3\>\/RR0_pos SEL0\<3\> \
 N_SEL0\<3\>_XI2\<9\>\/XI2\<3\>\/RR0_pos SEL0\<3\> \
 N_SEL0\<3\>_XI2\<8\>\/XI2\<3\>\/RR0_pos SEL0\<3\> \
 N_SEL0\<3\>_XI2\<7\>\/XI2\<3\>\/RR0_pos SEL0\<3\> \
 N_SEL0\<3\>_XI2\<6\>\/XI2\<3\>\/RR0_pos SEL0\<3\> \
 N_SEL0\<3\>_XI2\<5\>\/XI2\<3\>\/RR0_pos SEL0\<3\> \
 N_SEL0\<3\>_XI2\<4\>\/XI2\<3\>\/RR0_pos SEL0\<3\> \
 N_SEL0\<3\>_XI2\<3\>\/XI2\<3\>\/RR0_pos SEL0\<3\> \
 N_SEL0\<3\>_XI2\<2\>\/XI2\<3\>\/RR0_pos SEL0\<3\> \
 N_SEL0\<3\>_XI2\<1\>\/XI2\<3\>\/RR0_pos SEL0\<3\> \
 N_SEL0\<3\>_XI2\<0\>\/XI2\<3\>\/RR0_pos SEL0\<3\> )  \
 PM_POST_L2_256T2_EX\%SEL0\<3\>
x_PM_POST_L2_256T2_EX\%WLSEL\<486\> ( \
 N_WLSEL\<486\>_XI2\<15\>\/XI2\<3\>\/RR0_neg WLSEL\<486\> )  \
 PM_POST_L2_256T2_EX\%WLSEL\<486\>
x_PM_POST_L2_256T2_EX\%WLSEL\<485\> ( \
 N_WLSEL\<485\>_XI2\<15\>\/XI2\<2\>\/RR1_neg WLSEL\<485\> )  \
 PM_POST_L2_256T2_EX\%WLSEL\<485\>
x_PM_POST_L2_256T2_EX\%SEL0\<2\> ( N_SEL0\<2\>_XI2\<15\>\/XI2\<2\>\/RR0_pos \
 SEL0\<2\> N_SEL0\<2\>_XI2\<14\>\/XI2\<2\>\/RR0_pos SEL0\<2\> \
 N_SEL0\<2\>_XI2\<13\>\/XI2\<2\>\/RR0_pos SEL0\<2\> \
 N_SEL0\<2\>_XI2\<12\>\/XI2\<2\>\/RR0_pos SEL0\<2\> \
 N_SEL0\<2\>_XI2\<11\>\/XI2\<2\>\/RR0_pos SEL0\<2\> \
 N_SEL0\<2\>_XI2\<10\>\/XI2\<2\>\/RR0_pos SEL0\<2\> \
 N_SEL0\<2\>_XI2\<9\>\/XI2\<2\>\/RR0_pos SEL0\<2\> \
 N_SEL0\<2\>_XI2\<8\>\/XI2\<2\>\/RR0_pos SEL0\<2\> \
 N_SEL0\<2\>_XI2\<7\>\/XI2\<2\>\/RR0_pos SEL0\<2\> \
 N_SEL0\<2\>_XI2\<6\>\/XI2\<2\>\/RR0_pos SEL0\<2\> \
 N_SEL0\<2\>_XI2\<5\>\/XI2\<2\>\/RR0_pos SEL0\<2\> \
 N_SEL0\<2\>_XI2\<4\>\/XI2\<2\>\/RR0_pos SEL0\<2\> \
 N_SEL0\<2\>_XI2\<3\>\/XI2\<2\>\/RR0_pos SEL0\<2\> \
 N_SEL0\<2\>_XI2\<2\>\/XI2\<2\>\/RR0_pos SEL0\<2\> \
 N_SEL0\<2\>_XI2\<1\>\/XI2\<2\>\/RR0_pos SEL0\<2\> \
 N_SEL0\<2\>_XI2\<0\>\/XI2\<2\>\/RR0_pos SEL0\<2\> )  \
 PM_POST_L2_256T2_EX\%SEL0\<2\>
x_PM_POST_L2_256T2_EX\%WLSEL\<484\> ( \
 N_WLSEL\<484\>_XI2\<15\>\/XI2\<2\>\/RR0_neg WLSEL\<484\> )  \
 PM_POST_L2_256T2_EX\%WLSEL\<484\>
x_PM_POST_L2_256T2_EX\%WLSEL\<483\> ( \
 N_WLSEL\<483\>_XI2\<15\>\/XI2\<1\>\/RR1_neg WLSEL\<483\> )  \
 PM_POST_L2_256T2_EX\%WLSEL\<483\>
x_PM_POST_L2_256T2_EX\%SEL0\<1\> ( N_SEL0\<1\>_XI2\<15\>\/XI2\<1\>\/RR0_pos \
 SEL0\<1\> N_SEL0\<1\>_XI2\<14\>\/XI2\<1\>\/RR0_pos SEL0\<1\> \
 N_SEL0\<1\>_XI2\<13\>\/XI2\<1\>\/RR0_pos SEL0\<1\> \
 N_SEL0\<1\>_XI2\<12\>\/XI2\<1\>\/RR0_pos SEL0\<1\> \
 N_SEL0\<1\>_XI2\<11\>\/XI2\<1\>\/RR0_pos SEL0\<1\> \
 N_SEL0\<1\>_XI2\<10\>\/XI2\<1\>\/RR0_pos SEL0\<1\> \
 N_SEL0\<1\>_XI2\<9\>\/XI2\<1\>\/RR0_pos SEL0\<1\> \
 N_SEL0\<1\>_XI2\<8\>\/XI2\<1\>\/RR0_pos SEL0\<1\> \
 N_SEL0\<1\>_XI2\<7\>\/XI2\<1\>\/RR0_pos SEL0\<1\> \
 N_SEL0\<1\>_XI2\<6\>\/XI2\<1\>\/RR0_pos SEL0\<1\> \
 N_SEL0\<1\>_XI2\<5\>\/XI2\<1\>\/RR0_pos SEL0\<1\> \
 N_SEL0\<1\>_XI2\<4\>\/XI2\<1\>\/RR0_pos SEL0\<1\> \
 N_SEL0\<1\>_XI2\<3\>\/XI2\<1\>\/RR0_pos SEL0\<1\> \
 N_SEL0\<1\>_XI2\<2\>\/XI2\<1\>\/RR0_pos SEL0\<1\> \
 N_SEL0\<1\>_XI2\<1\>\/XI2\<1\>\/RR0_pos SEL0\<1\> \
 N_SEL0\<1\>_XI2\<0\>\/XI2\<1\>\/RR0_pos SEL0\<1\> )  \
 PM_POST_L2_256T2_EX\%SEL0\<1\>
x_PM_POST_L2_256T2_EX\%WLSEL\<482\> ( \
 N_WLSEL\<482\>_XI2\<15\>\/XI2\<1\>\/RR0_neg WLSEL\<482\> )  \
 PM_POST_L2_256T2_EX\%WLSEL\<482\>
x_PM_POST_L2_256T2_EX\%WLSEL\<481\> ( \
 N_WLSEL\<481\>_XI2\<15\>\/XI2\<0\>\/RR1_neg WLSEL\<481\> )  \
 PM_POST_L2_256T2_EX\%WLSEL\<481\>
x_PM_POST_L2_256T2_EX\%SEL0\<0\> ( N_SEL0\<0\>_XI2\<15\>\/XI2\<0\>\/RR0_pos \
 SEL0\<0\> N_SEL0\<0\>_XI2\<14\>\/XI2\<0\>\/RR0_pos SEL0\<0\> \
 N_SEL0\<0\>_XI2\<13\>\/XI2\<0\>\/RR0_pos SEL0\<0\> \
 N_SEL0\<0\>_XI2\<12\>\/XI2\<0\>\/RR0_pos SEL0\<0\> \
 N_SEL0\<0\>_XI2\<11\>\/XI2\<0\>\/RR0_pos SEL0\<0\> \
 N_SEL0\<0\>_XI2\<10\>\/XI2\<0\>\/RR0_pos SEL0\<0\> \
 N_SEL0\<0\>_XI2\<9\>\/XI2\<0\>\/RR0_pos SEL0\<0\> \
 N_SEL0\<0\>_XI2\<8\>\/XI2\<0\>\/RR0_pos SEL0\<0\> \
 N_SEL0\<0\>_XI2\<7\>\/XI2\<0\>\/RR0_pos SEL0\<0\> \
 N_SEL0\<0\>_XI2\<6\>\/XI2\<0\>\/RR0_pos SEL0\<0\> \
 N_SEL0\<0\>_XI2\<5\>\/XI2\<0\>\/RR0_pos SEL0\<0\> \
 N_SEL0\<0\>_XI2\<4\>\/XI2\<0\>\/RR0_pos SEL0\<0\> \
 N_SEL0\<0\>_XI2\<3\>\/XI2\<0\>\/RR0_pos SEL0\<0\> \
 N_SEL0\<0\>_XI2\<2\>\/XI2\<0\>\/RR0_pos SEL0\<0\> \
 N_SEL0\<0\>_XI2\<1\>\/XI2\<0\>\/RR0_pos SEL0\<0\> \
 N_SEL0\<0\>_XI2\<0\>\/XI2\<0\>\/RR0_pos SEL0\<0\> )  \
 PM_POST_L2_256T2_EX\%SEL0\<0\>
x_PM_POST_L2_256T2_EX\%WLSEL\<480\> ( \
 N_WLSEL\<480\>_XI2\<15\>\/XI2\<0\>\/RR0_neg WLSEL\<480\> )  \
 PM_POST_L2_256T2_EX\%WLSEL\<480\>
x_PM_POST_L2_256T2_EX\%SEL1\<14\> ( N_SEL1\<14\>_XI2\<14\>\/XI2\<15\>\/RR1_pos \
 SEL1\<14\> N_SEL1\<14\>_XI2\<14\>\/XI2\<14\>\/RR1_pos SEL1\<14\> \
 N_SEL1\<14\>_XI2\<14\>\/XI2\<13\>\/RR1_pos SEL1\<14\> \
 N_SEL1\<14\>_XI2\<14\>\/XI2\<12\>\/RR1_pos SEL1\<14\> \
 N_SEL1\<14\>_XI2\<14\>\/XI2\<11\>\/RR1_pos SEL1\<14\> \
 N_SEL1\<14\>_XI2\<14\>\/XI2\<10\>\/RR1_pos SEL1\<14\> \
 N_SEL1\<14\>_XI2\<14\>\/XI2\<9\>\/RR1_pos SEL1\<14\> \
 N_SEL1\<14\>_XI2\<14\>\/XI2\<8\>\/RR1_pos SEL1\<14\> \
 N_SEL1\<14\>_XI2\<14\>\/XI2\<7\>\/RR1_pos SEL1\<14\> \
 N_SEL1\<14\>_XI2\<14\>\/XI2\<6\>\/RR1_pos SEL1\<14\> \
 N_SEL1\<14\>_XI2\<14\>\/XI2\<5\>\/RR1_pos SEL1\<14\> \
 N_SEL1\<14\>_XI2\<14\>\/XI2\<4\>\/RR1_pos SEL1\<14\> \
 N_SEL1\<14\>_XI2\<14\>\/XI2\<3\>\/RR1_pos SEL1\<14\> \
 N_SEL1\<14\>_XI2\<14\>\/XI2\<2\>\/RR1_pos SEL1\<14\> \
 N_SEL1\<14\>_XI2\<14\>\/XI2\<1\>\/RR1_pos SEL1\<14\> \
 N_SEL1\<14\>_XI2\<14\>\/XI2\<0\>\/RR1_pos SEL1\<14\> )  \
 PM_POST_L2_256T2_EX\%SEL1\<14\>
x_PM_POST_L2_256T2_EX\%WLSEL\<479\> ( \
 N_WLSEL\<479\>_XI2\<14\>\/XI2\<15\>\/RR1_neg WLSEL\<479\> )  \
 PM_POST_L2_256T2_EX\%WLSEL\<479\>
x_PM_POST_L2_256T2_EX\%WLSEL\<478\> ( \
 N_WLSEL\<478\>_XI2\<14\>\/XI2\<15\>\/RR0_neg WLSEL\<478\> )  \
 PM_POST_L2_256T2_EX\%WLSEL\<478\>
x_PM_POST_L2_256T2_EX\%WLSEL\<477\> ( \
 N_WLSEL\<477\>_XI2\<14\>\/XI2\<14\>\/RR1_neg WLSEL\<477\> )  \
 PM_POST_L2_256T2_EX\%WLSEL\<477\>
x_PM_POST_L2_256T2_EX\%WLSEL\<476\> ( \
 N_WLSEL\<476\>_XI2\<14\>\/XI2\<14\>\/RR0_neg WLSEL\<476\> )  \
 PM_POST_L2_256T2_EX\%WLSEL\<476\>
x_PM_POST_L2_256T2_EX\%WLSEL\<475\> ( \
 N_WLSEL\<475\>_XI2\<14\>\/XI2\<13\>\/RR1_neg WLSEL\<475\> )  \
 PM_POST_L2_256T2_EX\%WLSEL\<475\>
x_PM_POST_L2_256T2_EX\%WLSEL\<474\> ( \
 N_WLSEL\<474\>_XI2\<14\>\/XI2\<13\>\/RR0_neg WLSEL\<474\> )  \
 PM_POST_L2_256T2_EX\%WLSEL\<474\>
x_PM_POST_L2_256T2_EX\%WLSEL\<473\> ( \
 N_WLSEL\<473\>_XI2\<14\>\/XI2\<12\>\/RR1_neg WLSEL\<473\> )  \
 PM_POST_L2_256T2_EX\%WLSEL\<473\>
x_PM_POST_L2_256T2_EX\%WLSEL\<472\> ( \
 N_WLSEL\<472\>_XI2\<14\>\/XI2\<12\>\/RR0_neg WLSEL\<472\> )  \
 PM_POST_L2_256T2_EX\%WLSEL\<472\>
x_PM_POST_L2_256T2_EX\%WLSEL\<471\> ( \
 N_WLSEL\<471\>_XI2\<14\>\/XI2\<11\>\/RR1_neg WLSEL\<471\> )  \
 PM_POST_L2_256T2_EX\%WLSEL\<471\>
x_PM_POST_L2_256T2_EX\%WLSEL\<470\> ( \
 N_WLSEL\<470\>_XI2\<14\>\/XI2\<11\>\/RR0_neg WLSEL\<470\> )  \
 PM_POST_L2_256T2_EX\%WLSEL\<470\>
x_PM_POST_L2_256T2_EX\%WLSEL\<469\> ( \
 N_WLSEL\<469\>_XI2\<14\>\/XI2\<10\>\/RR1_neg WLSEL\<469\> )  \
 PM_POST_L2_256T2_EX\%WLSEL\<469\>
x_PM_POST_L2_256T2_EX\%WLSEL\<468\> ( \
 N_WLSEL\<468\>_XI2\<14\>\/XI2\<10\>\/RR0_neg WLSEL\<468\> )  \
 PM_POST_L2_256T2_EX\%WLSEL\<468\>
x_PM_POST_L2_256T2_EX\%WLSEL\<467\> ( \
 N_WLSEL\<467\>_XI2\<14\>\/XI2\<9\>\/RR1_neg WLSEL\<467\> )  \
 PM_POST_L2_256T2_EX\%WLSEL\<467\>
x_PM_POST_L2_256T2_EX\%WLSEL\<466\> ( \
 N_WLSEL\<466\>_XI2\<14\>\/XI2\<9\>\/RR0_neg WLSEL\<466\> )  \
 PM_POST_L2_256T2_EX\%WLSEL\<466\>
x_PM_POST_L2_256T2_EX\%WLSEL\<465\> ( \
 N_WLSEL\<465\>_XI2\<14\>\/XI2\<8\>\/RR1_neg WLSEL\<465\> )  \
 PM_POST_L2_256T2_EX\%WLSEL\<465\>
x_PM_POST_L2_256T2_EX\%WLSEL\<464\> ( \
 N_WLSEL\<464\>_XI2\<14\>\/XI2\<8\>\/RR0_neg WLSEL\<464\> )  \
 PM_POST_L2_256T2_EX\%WLSEL\<464\>
x_PM_POST_L2_256T2_EX\%WLSEL\<463\> ( \
 N_WLSEL\<463\>_XI2\<14\>\/XI2\<7\>\/RR1_neg WLSEL\<463\> )  \
 PM_POST_L2_256T2_EX\%WLSEL\<463\>
x_PM_POST_L2_256T2_EX\%WLSEL\<462\> ( \
 N_WLSEL\<462\>_XI2\<14\>\/XI2\<7\>\/RR0_neg WLSEL\<462\> )  \
 PM_POST_L2_256T2_EX\%WLSEL\<462\>
x_PM_POST_L2_256T2_EX\%WLSEL\<461\> ( \
 N_WLSEL\<461\>_XI2\<14\>\/XI2\<6\>\/RR1_neg WLSEL\<461\> )  \
 PM_POST_L2_256T2_EX\%WLSEL\<461\>
x_PM_POST_L2_256T2_EX\%WLSEL\<460\> ( \
 N_WLSEL\<460\>_XI2\<14\>\/XI2\<6\>\/RR0_neg WLSEL\<460\> )  \
 PM_POST_L2_256T2_EX\%WLSEL\<460\>
x_PM_POST_L2_256T2_EX\%WLSEL\<459\> ( \
 N_WLSEL\<459\>_XI2\<14\>\/XI2\<5\>\/RR1_neg WLSEL\<459\> )  \
 PM_POST_L2_256T2_EX\%WLSEL\<459\>
x_PM_POST_L2_256T2_EX\%WLSEL\<458\> ( \
 N_WLSEL\<458\>_XI2\<14\>\/XI2\<5\>\/RR0_neg WLSEL\<458\> )  \
 PM_POST_L2_256T2_EX\%WLSEL\<458\>
x_PM_POST_L2_256T2_EX\%WLSEL\<457\> ( \
 N_WLSEL\<457\>_XI2\<14\>\/XI2\<4\>\/RR1_neg WLSEL\<457\> )  \
 PM_POST_L2_256T2_EX\%WLSEL\<457\>
x_PM_POST_L2_256T2_EX\%WLSEL\<456\> ( \
 N_WLSEL\<456\>_XI2\<14\>\/XI2\<4\>\/RR0_neg WLSEL\<456\> )  \
 PM_POST_L2_256T2_EX\%WLSEL\<456\>
x_PM_POST_L2_256T2_EX\%WLSEL\<455\> ( \
 N_WLSEL\<455\>_XI2\<14\>\/XI2\<3\>\/RR1_neg WLSEL\<455\> )  \
 PM_POST_L2_256T2_EX\%WLSEL\<455\>
x_PM_POST_L2_256T2_EX\%WLSEL\<454\> ( \
 N_WLSEL\<454\>_XI2\<14\>\/XI2\<3\>\/RR0_neg WLSEL\<454\> )  \
 PM_POST_L2_256T2_EX\%WLSEL\<454\>
x_PM_POST_L2_256T2_EX\%WLSEL\<453\> ( \
 N_WLSEL\<453\>_XI2\<14\>\/XI2\<2\>\/RR1_neg WLSEL\<453\> )  \
 PM_POST_L2_256T2_EX\%WLSEL\<453\>
x_PM_POST_L2_256T2_EX\%WLSEL\<452\> ( \
 N_WLSEL\<452\>_XI2\<14\>\/XI2\<2\>\/RR0_neg WLSEL\<452\> )  \
 PM_POST_L2_256T2_EX\%WLSEL\<452\>
x_PM_POST_L2_256T2_EX\%WLSEL\<451\> ( \
 N_WLSEL\<451\>_XI2\<14\>\/XI2\<1\>\/RR1_neg WLSEL\<451\> )  \
 PM_POST_L2_256T2_EX\%WLSEL\<451\>
x_PM_POST_L2_256T2_EX\%WLSEL\<450\> ( \
 N_WLSEL\<450\>_XI2\<14\>\/XI2\<1\>\/RR0_neg WLSEL\<450\> )  \
 PM_POST_L2_256T2_EX\%WLSEL\<450\>
x_PM_POST_L2_256T2_EX\%WLSEL\<449\> ( \
 N_WLSEL\<449\>_XI2\<14\>\/XI2\<0\>\/RR1_neg WLSEL\<449\> )  \
 PM_POST_L2_256T2_EX\%WLSEL\<449\>
x_PM_POST_L2_256T2_EX\%WLSEL\<448\> ( \
 N_WLSEL\<448\>_XI2\<14\>\/XI2\<0\>\/RR0_neg WLSEL\<448\> )  \
 PM_POST_L2_256T2_EX\%WLSEL\<448\>
x_PM_POST_L2_256T2_EX\%SEL1\<13\> ( N_SEL1\<13\>_XI2\<13\>\/XI2\<15\>\/RR1_pos \
 SEL1\<13\> N_SEL1\<13\>_XI2\<13\>\/XI2\<14\>\/RR1_pos SEL1\<13\> \
 N_SEL1\<13\>_XI2\<13\>\/XI2\<13\>\/RR1_pos SEL1\<13\> \
 N_SEL1\<13\>_XI2\<13\>\/XI2\<12\>\/RR1_pos SEL1\<13\> \
 N_SEL1\<13\>_XI2\<13\>\/XI2\<11\>\/RR1_pos SEL1\<13\> \
 N_SEL1\<13\>_XI2\<13\>\/XI2\<10\>\/RR1_pos SEL1\<13\> \
 N_SEL1\<13\>_XI2\<13\>\/XI2\<9\>\/RR1_pos SEL1\<13\> \
 N_SEL1\<13\>_XI2\<13\>\/XI2\<8\>\/RR1_pos SEL1\<13\> \
 N_SEL1\<13\>_XI2\<13\>\/XI2\<7\>\/RR1_pos SEL1\<13\> \
 N_SEL1\<13\>_XI2\<13\>\/XI2\<6\>\/RR1_pos SEL1\<13\> \
 N_SEL1\<13\>_XI2\<13\>\/XI2\<5\>\/RR1_pos SEL1\<13\> \
 N_SEL1\<13\>_XI2\<13\>\/XI2\<4\>\/RR1_pos SEL1\<13\> \
 N_SEL1\<13\>_XI2\<13\>\/XI2\<3\>\/RR1_pos SEL1\<13\> \
 N_SEL1\<13\>_XI2\<13\>\/XI2\<2\>\/RR1_pos SEL1\<13\> \
 N_SEL1\<13\>_XI2\<13\>\/XI2\<1\>\/RR1_pos SEL1\<13\> \
 N_SEL1\<13\>_XI2\<13\>\/XI2\<0\>\/RR1_pos SEL1\<13\> )  \
 PM_POST_L2_256T2_EX\%SEL1\<13\>
x_PM_POST_L2_256T2_EX\%WLSEL\<447\> ( \
 N_WLSEL\<447\>_XI2\<13\>\/XI2\<15\>\/RR1_neg WLSEL\<447\> )  \
 PM_POST_L2_256T2_EX\%WLSEL\<447\>
x_PM_POST_L2_256T2_EX\%WLSEL\<446\> ( \
 N_WLSEL\<446\>_XI2\<13\>\/XI2\<15\>\/RR0_neg WLSEL\<446\> )  \
 PM_POST_L2_256T2_EX\%WLSEL\<446\>
x_PM_POST_L2_256T2_EX\%WLSEL\<445\> ( \
 N_WLSEL\<445\>_XI2\<13\>\/XI2\<14\>\/RR1_neg WLSEL\<445\> )  \
 PM_POST_L2_256T2_EX\%WLSEL\<445\>
x_PM_POST_L2_256T2_EX\%WLSEL\<444\> ( \
 N_WLSEL\<444\>_XI2\<13\>\/XI2\<14\>\/RR0_neg WLSEL\<444\> )  \
 PM_POST_L2_256T2_EX\%WLSEL\<444\>
x_PM_POST_L2_256T2_EX\%WLSEL\<443\> ( \
 N_WLSEL\<443\>_XI2\<13\>\/XI2\<13\>\/RR1_neg WLSEL\<443\> )  \
 PM_POST_L2_256T2_EX\%WLSEL\<443\>
x_PM_POST_L2_256T2_EX\%WLSEL\<442\> ( \
 N_WLSEL\<442\>_XI2\<13\>\/XI2\<13\>\/RR0_neg WLSEL\<442\> )  \
 PM_POST_L2_256T2_EX\%WLSEL\<442\>
x_PM_POST_L2_256T2_EX\%WLSEL\<441\> ( \
 N_WLSEL\<441\>_XI2\<13\>\/XI2\<12\>\/RR1_neg WLSEL\<441\> )  \
 PM_POST_L2_256T2_EX\%WLSEL\<441\>
x_PM_POST_L2_256T2_EX\%WLSEL\<440\> ( \
 N_WLSEL\<440\>_XI2\<13\>\/XI2\<12\>\/RR0_neg WLSEL\<440\> )  \
 PM_POST_L2_256T2_EX\%WLSEL\<440\>
x_PM_POST_L2_256T2_EX\%WLSEL\<439\> ( \
 N_WLSEL\<439\>_XI2\<13\>\/XI2\<11\>\/RR1_neg WLSEL\<439\> )  \
 PM_POST_L2_256T2_EX\%WLSEL\<439\>
x_PM_POST_L2_256T2_EX\%WLSEL\<438\> ( \
 N_WLSEL\<438\>_XI2\<13\>\/XI2\<11\>\/RR0_neg WLSEL\<438\> )  \
 PM_POST_L2_256T2_EX\%WLSEL\<438\>
x_PM_POST_L2_256T2_EX\%WLSEL\<437\> ( \
 N_WLSEL\<437\>_XI2\<13\>\/XI2\<10\>\/RR1_neg WLSEL\<437\> )  \
 PM_POST_L2_256T2_EX\%WLSEL\<437\>
x_PM_POST_L2_256T2_EX\%WLSEL\<436\> ( \
 N_WLSEL\<436\>_XI2\<13\>\/XI2\<10\>\/RR0_neg WLSEL\<436\> )  \
 PM_POST_L2_256T2_EX\%WLSEL\<436\>
x_PM_POST_L2_256T2_EX\%WLSEL\<435\> ( \
 N_WLSEL\<435\>_XI2\<13\>\/XI2\<9\>\/RR1_neg WLSEL\<435\> )  \
 PM_POST_L2_256T2_EX\%WLSEL\<435\>
x_PM_POST_L2_256T2_EX\%WLSEL\<434\> ( \
 N_WLSEL\<434\>_XI2\<13\>\/XI2\<9\>\/RR0_neg WLSEL\<434\> )  \
 PM_POST_L2_256T2_EX\%WLSEL\<434\>
x_PM_POST_L2_256T2_EX\%WLSEL\<433\> ( \
 N_WLSEL\<433\>_XI2\<13\>\/XI2\<8\>\/RR1_neg WLSEL\<433\> )  \
 PM_POST_L2_256T2_EX\%WLSEL\<433\>
x_PM_POST_L2_256T2_EX\%WLSEL\<432\> ( \
 N_WLSEL\<432\>_XI2\<13\>\/XI2\<8\>\/RR0_neg WLSEL\<432\> )  \
 PM_POST_L2_256T2_EX\%WLSEL\<432\>
x_PM_POST_L2_256T2_EX\%WLSEL\<431\> ( \
 N_WLSEL\<431\>_XI2\<13\>\/XI2\<7\>\/RR1_neg WLSEL\<431\> )  \
 PM_POST_L2_256T2_EX\%WLSEL\<431\>
x_PM_POST_L2_256T2_EX\%WLSEL\<430\> ( \
 N_WLSEL\<430\>_XI2\<13\>\/XI2\<7\>\/RR0_neg WLSEL\<430\> )  \
 PM_POST_L2_256T2_EX\%WLSEL\<430\>
x_PM_POST_L2_256T2_EX\%WLSEL\<429\> ( \
 N_WLSEL\<429\>_XI2\<13\>\/XI2\<6\>\/RR1_neg WLSEL\<429\> )  \
 PM_POST_L2_256T2_EX\%WLSEL\<429\>
x_PM_POST_L2_256T2_EX\%WLSEL\<428\> ( \
 N_WLSEL\<428\>_XI2\<13\>\/XI2\<6\>\/RR0_neg WLSEL\<428\> )  \
 PM_POST_L2_256T2_EX\%WLSEL\<428\>
x_PM_POST_L2_256T2_EX\%WLSEL\<427\> ( \
 N_WLSEL\<427\>_XI2\<13\>\/XI2\<5\>\/RR1_neg WLSEL\<427\> )  \
 PM_POST_L2_256T2_EX\%WLSEL\<427\>
x_PM_POST_L2_256T2_EX\%WLSEL\<426\> ( \