// File: /home/edauser0/ayigit/RowDecoder_Project/CDS_VISIO/project_pex/Post_L2_256t2_Text/spectreText/spectre.scs.pex
// Created: Tue Dec 21 12:19:14 2021
// Program "Calibre xRC"
// Version "v2020.1_17.9"
// Nominal Temperature: 25C
// Circuit Temperature: 25C
// 
simulator lang=spectre
subckt PM_POST_L2_256T2_EX\%SEL1\<15\> ( 1 3 5 7 9 11 13 15 17 19 21 23 25 27 \
 29 31 33 35 37 39 41 43 45 47 49 51 53 55 57 59 61 63 )
c0 ( 63 0 ) capacitor c=1.57867f
c1 ( 59 0 ) capacitor c=1.57867f
c2 ( 55 0 ) capacitor c=1.57867f
c3 ( 51 0 ) capacitor c=1.57867f
c4 ( 47 0 ) capacitor c=1.57867f
c5 ( 43 0 ) capacitor c=1.57867f
c6 ( 39 0 ) capacitor c=1.57867f
c7 ( 35 0 ) capacitor c=1.57867f
c8 ( 31 0 ) capacitor c=1.57867f
c9 ( 27 0 ) capacitor c=1.57867f
c10 ( 23 0 ) capacitor c=1.57867f
c11 ( 19 0 ) capacitor c=1.57867f
c12 ( 15 0 ) capacitor c=1.57867f
c13 ( 11 0 ) capacitor c=1.57867f
c14 ( 7 0 ) capacitor c=1.57867f
c15 ( 3 0 ) capacitor c=1.03629f
r16 (  61 63 ) resistor r=11.8575
r17 (  57 59 ) resistor r=11.8575
r18 (  53 55 ) resistor r=11.8575
r19 (  49 51 ) resistor r=11.8575
r20 (  45 47 ) resistor r=11.8575
r21 (  41 43 ) resistor r=11.8575
r22 (  37 39 ) resistor r=11.8575
r23 (  33 35 ) resistor r=11.8575
r24 (  29 31 ) resistor r=11.8575
r25 (  25 27 ) resistor r=11.8575
r26 (  21 23 ) resistor r=11.8575
r27 (  17 19 ) resistor r=11.8575
r28 (  13 15 ) resistor r=11.8575
r29 (  9 11 ) resistor r=11.8575
r30 (  5 7 ) resistor r=11.8575
r31 (  1 3 ) resistor r=9.04357
ends PM_POST_L2_256T2_EX\%SEL1\<15\>

subckt PM_POST_L2_256T2_EX\%WLSEL\<511\> ( 1 3 )
c0 ( 3 0 ) capacitor c=0.0141479f
r1 (  1 3 ) resistor r=0.102963
ends PM_POST_L2_256T2_EX\%WLSEL\<511\>

subckt PM_POST_L2_256T2_EX\%SEL0\<15\> ( 1 3 5 7 9 11 13 15 17 19 21 23 25 27 \
 29 31 33 35 37 39 41 43 45 47 49 51 53 55 57 59 61 63 )
c0 ( 63 0 ) capacitor c=1.57867f
c1 ( 59 0 ) capacitor c=1.57867f
c2 ( 55 0 ) capacitor c=1.57867f
c3 ( 51 0 ) capacitor c=1.57867f
c4 ( 47 0 ) capacitor c=1.57867f
c5 ( 43 0 ) capacitor c=1.57867f
c6 ( 39 0 ) capacitor c=1.57867f
c7 ( 35 0 ) capacitor c=1.57867f
c8 ( 31 0 ) capacitor c=1.57867f
c9 ( 27 0 ) capacitor c=1.57867f
c10 ( 23 0 ) capacitor c=1.57867f
c11 ( 19 0 ) capacitor c=1.57867f
c12 ( 15 0 ) capacitor c=1.57867f
c13 ( 11 0 ) capacitor c=1.57867f
c14 ( 7 0 ) capacitor c=1.57867f
c15 ( 3 0 ) capacitor c=1.57867f
r16 (  61 63 ) resistor r=11.8425
r17 (  57 59 ) resistor r=11.8425
r18 (  53 55 ) resistor r=11.8425
r19 (  49 51 ) resistor r=11.8425
r20 (  45 47 ) resistor r=11.8425
r21 (  41 43 ) resistor r=11.8425
r22 (  37 39 ) resistor r=11.8425
r23 (  33 35 ) resistor r=11.8425
r24 (  29 31 ) resistor r=11.8425
r25 (  25 27 ) resistor r=11.8425
r26 (  21 23 ) resistor r=11.8425
r27 (  17 19 ) resistor r=11.8425
r28 (  13 15 ) resistor r=11.8425
r29 (  9 11 ) resistor r=11.8425
r30 (  5 7 ) resistor r=11.8425
r31 (  1 3 ) resistor r=11.8425
ends PM_POST_L2_256T2_EX\%SEL0\<15\>

subckt PM_POST_L2_256T2_EX\%WLSEL\<510\> ( 1 3 )
c0 ( 3 0 ) capacitor c=0.0282959f
r1 (  1 3 ) resistor r=0.135
ends PM_POST_L2_256T2_EX\%WLSEL\<510\>

subckt PM_POST_L2_256T2_EX\%WLSEL\<509\> ( 1 3 )
c0 ( 3 0 ) capacitor c=0.0282959f
r1 (  1 3 ) resistor r=0.135
ends PM_POST_L2_256T2_EX\%WLSEL\<509\>

subckt PM_POST_L2_256T2_EX\%SEL0\<14\> ( 1 3 5 7 9 11 13 15 17 19 21 23 25 27 \
 29 31 33 35 37 39 41 43 45 47 49 51 53 55 57 59 61 63 )
c0 ( 63 0 ) capacitor c=1.57867f
c1 ( 59 0 ) capacitor c=1.57867f
c2 ( 55 0 ) capacitor c=1.57867f
c3 ( 51 0 ) capacitor c=1.57867f
c4 ( 47 0 ) capacitor c=1.57867f
c5 ( 43 0 ) capacitor c=1.57867f
c6 ( 39 0 ) capacitor c=1.57867f
c7 ( 35 0 ) capacitor c=1.57867f
c8 ( 31 0 ) capacitor c=1.57867f
c9 ( 27 0 ) capacitor c=1.57867f
c10 ( 23 0 ) capacitor c=1.57867f
c11 ( 19 0 ) capacitor c=1.57867f
c12 ( 15 0 ) capacitor c=1.57867f
c13 ( 11 0 ) capacitor c=1.57867f
c14 ( 7 0 ) capacitor c=1.57867f
c15 ( 3 0 ) capacitor c=1.57867f
r16 (  61 63 ) resistor r=11.8425
r17 (  57 59 ) resistor r=11.8425
r18 (  53 55 ) resistor r=11.8425
r19 (  49 51 ) resistor r=11.8425
r20 (  45 47 ) resistor r=11.8425
r21 (  41 43 ) resistor r=11.8425
r22 (  37 39 ) resistor r=11.8425
r23 (  33 35 ) resistor r=11.8425
r24 (  29 31 ) resistor r=11.8425
r25 (  25 27 ) resistor r=11.8425
r26 (  21 23 ) resistor r=11.8425
r27 (  17 19 ) resistor r=11.8425
r28 (  13 15 ) resistor r=11.8425
r29 (  9 11 ) resistor r=11.8425
r30 (  5 7 ) resistor r=11.8425
r31 (  1 3 ) resistor r=11.8425
ends PM_POST_L2_256T2_EX\%SEL0\<14\>

subckt PM_POST_L2_256T2_EX\%WLSEL\<508\> ( 1 3 )
c0 ( 3 0 ) capacitor c=0.0282959f
r1 (  1 3 ) resistor r=0.135
ends PM_POST_L2_256T2_EX\%WLSEL\<508\>

subckt PM_POST_L2_256T2_EX\%WLSEL\<507\> ( 1 3 )
c0 ( 3 0 ) capacitor c=0.0282959f
r1 (  1 3 ) resistor r=0.135
ends PM_POST_L2_256T2_EX\%WLSEL\<507\>

subckt PM_POST_L2_256T2_EX\%SEL0\<13\> ( 1 3 5 7 9 11 13 15 17 19 21 23 25 27 \
 29 31 33 35 37 39 41 43 45 47 49 51 53 55 57 59 61 63 )
c0 ( 63 0 ) capacitor c=1.57867f
c1 ( 59 0 ) capacitor c=1.57867f
c2 ( 55 0 ) capacitor c=1.57867f
c3 ( 51 0 ) capacitor c=1.57867f
c4 ( 47 0 ) capacitor c=1.57867f
c5 ( 43 0 ) capacitor c=1.57867f
c6 ( 39 0 ) capacitor c=1.57867f
c7 ( 35 0 ) capacitor c=1.57867f
c8 ( 31 0 ) capacitor c=1.57867f
c9 ( 27 0 ) capacitor c=1.57867f
c10 ( 23 0 ) capacitor c=1.57867f
c11 ( 19 0 ) capacitor c=1.57867f
c12 ( 15 0 ) capacitor c=1.57867f
c13 ( 11 0 ) capacitor c=1.57867f
c14 ( 7 0 ) capacitor c=1.57867f
c15 ( 3 0 ) capacitor c=1.57867f
r16 (  61 63 ) resistor r=11.8425
r17 (  57 59 ) resistor r=11.8425
r18 (  53 55 ) resistor r=11.8425
r19 (  49 51 ) resistor r=11.8425
r20 (  45 47 ) resistor r=11.8425
r21 (  41 43 ) resistor r=11.8425
r22 (  37 39 ) resistor r=11.8425
r23 (  33 35 ) resistor r=11.8425
r24 (  29 31 ) resistor r=11.8425
r25 (  25 27 ) resistor r=11.8425
r26 (  21 23 ) resistor r=11.8425
r27 (  17 19 ) resistor r=11.8425
r28 (  13 15 ) resistor r=11.8425
r29 (  9 11 ) resistor r=11.8425
r30 (  5 7 ) resistor r=11.8425
r31 (  1 3 ) resistor r=11.8425
ends PM_POST_L2_256T2_EX\%SEL0\<13\>

subckt PM_POST_L2_256T2_EX\%WLSEL\<506\> ( 1 3 )
c0 ( 3 0 ) capacitor c=0.0282959f
r1 (  1 3 ) resistor r=0.135
ends PM_POST_L2_256T2_EX\%WLSEL\<506\>

subckt PM_POST_L2_256T2_EX\%WLSEL\<505\> ( 1 3 )
c0 ( 3 0 ) capacitor c=0.0282959f
r1 (  1 3 ) resistor r=0.135
ends PM_POST_L2_256T2_EX\%WLSEL\<505\>

subckt PM_POST_L2_256T2_EX\%SEL0\<12\> ( 1 3 5 7 9 11 13 15 17 19 21 23 25 27 \
 29 31 33 35 37 39 41 43 45 47 49 51 53 55 57 59 61 63 )
c0 ( 63 0 ) capacitor c=1.57867f
c1 ( 59 0 ) capacitor c=1.57867f
c2 ( 55 0 ) capacitor c=1.57867f
c3 ( 51 0 ) capacitor c=1.57867f
c4 ( 47 0 ) capacitor c=1.57867f
c5 ( 43 0 ) capacitor c=1.57867f
c6 ( 39 0 ) capacitor c=1.57867f
c7 ( 35 0 ) capacitor c=1.57867f
c8 ( 31 0 ) capacitor c=1.57867f
c9 ( 27 0 ) capacitor c=1.57867f
c10 ( 23 0 ) capacitor c=1.57867f
c11 ( 19 0 ) capacitor c=1.57867f
c12 ( 15 0 ) capacitor c=1.57867f
c13 ( 11 0 ) capacitor c=1.57867f
c14 ( 7 0 ) capacitor c=1.57867f
c15 ( 3 0 ) capacitor c=1.57867f
r16 (  61 63 ) resistor r=11.8425
r17 (  57 59 ) resistor r=11.8425
r18 (  53 55 ) resistor r=11.8425
r19 (  49 51 ) resistor r=11.8425
r20 (  45 47 ) resistor r=11.8425
r21 (  41 43 ) resistor r=11.8425
r22 (  37 39 ) resistor r=11.8425
r23 (  33 35 ) resistor r=11.8425
r24 (  29 31 ) resistor r=11.8425
r25 (  25 27 ) resistor r=11.8425
r26 (  21 23 ) resistor r=11.8425
r27 (  17 19 ) resistor r=11.8425
r28 (  13 15 ) resistor r=11.8425
r29 (  9 11 ) resistor r=11.8425
r30 (  5 7 ) resistor r=11.8425
r31 (  1 3 ) resistor r=11.8425
ends PM_POST_L2_256T2_EX\%SEL0\<12\>

subckt PM_POST_L2_256T2_EX\%WLSEL\<504\> ( 1 3 )
c0 ( 3 0 ) capacitor c=0.0282959f
r1 (  1 3 ) resistor r=0.135
ends PM_POST_L2_256T2_EX\%WLSEL\<504\>

subckt PM_POST_L2_256T2_EX\%WLSEL\<503\> ( 1 3 )
c0 ( 3 0 ) capacitor c=0.0282959f
r1 (  1 3 ) resistor r=0.135
ends PM_POST_L2_256T2_EX\%WLSEL\<503\>

subckt PM_POST_L2_256T2_EX\%SEL0\<11\> ( 1 3 5 7 9 11 13 15 17 19 21 23 25 27 \
 29 31 33 35 37 39 41 43 45 47 49 51 53 55 57 59 61 63 )
c0 ( 63 0 ) capacitor c=1.57867f
c1 ( 59 0 ) capacitor c=1.57867f
c2 ( 55 0 ) capacitor c=1.57867f
c3 ( 51 0 ) capacitor c=1.57867f
c4 ( 47 0 ) capacitor c=1.57867f
c5 ( 43 0 ) capacitor c=1.57867f
c6 ( 39 0 ) capacitor c=1.57867f
c7 ( 35 0 ) capacitor c=1.57867f
c8 ( 31 0 ) capacitor c=1.57867f
c9 ( 27 0 ) capacitor c=1.57867f
c10 ( 23 0 ) capacitor c=1.57867f
c11 ( 19 0 ) capacitor c=1.57867f
c12 ( 15 0 ) capacitor c=1.57867f
c13 ( 11 0 ) capacitor c=1.57867f
c14 ( 7 0 ) capacitor c=1.57867f
c15 ( 3 0 ) capacitor c=1.57867f
r16 (  61 63 ) resistor r=11.8425
r17 (  57 59 ) resistor r=11.8425
r18 (  53 55 ) resistor r=11.8425
r19 (  49 51 ) resistor r=11.8425
r20 (  45 47 ) resistor r=11.8425
r21 (  41 43 ) resistor r=11.8425
r22 (  37 39 ) resistor r=11.8425
r23 (  33 35 ) resistor r=11.8425
r24 (  29 31 ) resistor r=11.8425
r25 (  25 27 ) resistor r=11.8425
r26 (  21 23 ) resistor r=11.8425
r27 (  17 19 ) resistor r=11.8425
r28 (  13 15 ) resistor r=11.8425
r29 (  9 11 ) resistor r=11.8425
r30 (  5 7 ) resistor r=11.8425
r31 (  1 3 ) resistor r=11.8425
ends PM_POST_L2_256T2_EX\%SEL0\<11\>

subckt PM_POST_L2_256T2_EX\%WLSEL\<502\> ( 1 3 )
c0 ( 3 0 ) capacitor c=0.0282959f
r1 (  1 3 ) resistor r=0.135
ends PM_POST_L2_256T2_EX\%WLSEL\<502\>

subckt PM_POST_L2_256T2_EX\%WLSEL\<501\> ( 1 3 )
c0 ( 3 0 ) capacitor c=0.0282959f
r1 (  1 3 ) resistor r=0.135
ends PM_POST_L2_256T2_EX\%WLSEL\<501\>

subckt PM_POST_L2_256T2_EX\%SEL0\<10\> ( 1 3 5 7 9 11 13 15 17 19 21 23 25 27 \
 29 31 33 35 37 39 41 43 45 47 49 51 53 55 57 59 61 63 )
c0 ( 63 0 ) capacitor c=1.57867f
c1 ( 59 0 ) capacitor c=1.57867f
c2 ( 55 0 ) capacitor c=1.57867f
c3 ( 51 0 ) capacitor c=1.57867f
c4 ( 47 0 ) capacitor c=1.57867f
c5 ( 43 0 ) capacitor c=1.57867f
c6 ( 39 0 ) capacitor c=1.57867f
c7 ( 35 0 ) capacitor c=1.57867f
c8 ( 31 0 ) capacitor c=1.57867f
c9 ( 27 0 ) capacitor c=1.57867f
c10 ( 23 0 ) capacitor c=1.57867f
c11 ( 19 0 ) capacitor c=1.57867f
c12 ( 15 0 ) capacitor c=1.57867f
c13 ( 11 0 ) capacitor c=1.57867f
c14 ( 7 0 ) capacitor c=1.57867f
c15 ( 3 0 ) capacitor c=1.57867f
r16 (  61 63 ) resistor r=11.8425
r17 (  57 59 ) resistor r=11.8425
r18 (  53 55 ) resistor r=11.8425
r19 (  49 51 ) resistor r=11.8425
r20 (  45 47 ) resistor r=11.8425
r21 (  41 43 ) resistor r=11.8425
r22 (  37 39 ) resistor r=11.8425
r23 (  33 35 ) resistor r=11.8425
r24 (  29 31 ) resistor r=11.8425
r25 (  25 27 ) resistor r=11.8425
r26 (  21 23 ) resistor r=11.8425
r27 (  17 19 ) resistor r=11.8425
r28 (  13 15 ) resistor r=11.8425
r29 (  9 11 ) resistor r=11.8425
r30 (  5 7 ) resistor r=11.8425
r31 (  1 3 ) resistor r=11.8425
ends PM_POST_L2_256T2_EX\%SEL0\<10\>

subckt PM_POST_L2_256T2_EX\%WLSEL\<500\> ( 1 3 )
c0 ( 3 0 ) capacitor c=0.0282959f
r1 (  1 3 ) resistor r=0.135
ends PM_POST_L2_256T2_EX\%WLSEL\<500\>

subckt PM_POST_L2_256T2_EX\%WLSEL\<499\> ( 1 3 )
c0 ( 3 0 ) capacitor c=0.0282959f
r1 (  1 3 ) resistor r=0.135
ends PM_POST_L2_256T2_EX\%WLSEL\<499\>

subckt PM_POST_L2_256T2_EX\%SEL0\<9\> ( 1 3 5 7 9 11 13 15 17 19 21 23 25 27 \
 29 31 33 35 37 39 41 43 45 47 49 51 53 55 57 59 61 63 )
c0 ( 63 0 ) capacitor c=1.57867f
c1 ( 59 0 ) capacitor c=1.57867f
c2 ( 55 0 ) capacitor c=1.57867f
c3 ( 51 0 ) capacitor c=1.57867f
c4 ( 47 0 ) capacitor c=1.57867f
c5 ( 43 0 ) capacitor c=1.57867f
c6 ( 39 0 ) capacitor c=1.57867f
c7 ( 35 0 ) capacitor c=1.57867f
c8 ( 31 0 ) capacitor c=1.57867f
c9 ( 27 0 ) capacitor c=1.57867f
c10 ( 23 0 ) capacitor c=1.57867f
c11 ( 19 0 ) capacitor c=1.57867f
c12 ( 15 0 ) capacitor c=1.57867f
c13 ( 11 0 ) capacitor c=1.57867f
c14 ( 7 0 ) capacitor c=1.57867f
c15 ( 3 0 ) capacitor c=1.57867f
r16 (  61 63 ) resistor r=11.8425
r17 (  57 59 ) resistor r=11.8425
r18 (  53 55 ) resistor r=11.8425
r19 (  49 51 ) resistor r=11.8425
r20 (  45 47 ) resistor r=11.8425
r21 (  41 43 ) resistor r=11.8425
r22 (  37 39 ) resistor r=11.8425
r23 (  33 35 ) resistor r=11.8425
r24 (  29 31 ) resistor r=11.8425
r25 (  25 27 ) resistor r=11.8425
r26 (  21 23 ) resistor r=11.8425
r27 (  17 19 ) resistor r=11.8425
r28 (  13 15 ) resistor r=11.8425
r29 (  9 11 ) resistor r=11.8425
r30 (  5 7 ) resistor r=11.8425
r31 (  1 3 ) resistor r=11.8425
ends PM_POST_L2_256T2_EX\%SEL0\<9\>

subckt PM_POST_L2_256T2_EX\%WLSEL\<498\> ( 1 3 )
c0 ( 3 0 ) capacitor c=0.0282959f
r1 (  1 3 ) resistor r=0.135
ends PM_POST_L2_256T2_EX\%WLSEL\<498\>

subckt PM_POST_L2_256T2_EX\%WLSEL\<497\> ( 1 3 )
c0 ( 3 0 ) capacitor c=0.0282959f
r1 (  1 3 ) resistor r=0.135
ends PM_POST_L2_256T2_EX\%WLSEL\<497\>

subckt PM_POST_L2_256T2_EX\%SEL0\<8\> ( 1 3 5 7 9 11 13 15 17 19 21 23 25 27 \
 29 31 33 35 37 39 41 43 45 47 49 51 53 55 57 59 61 63 )
c0 ( 63 0 ) capacitor c=1.57867f
c1 ( 59 0 ) capacitor c=1.57867f
c2 ( 55 0 ) capacitor c=1.57867f
c3 ( 51 0 ) capacitor c=1.57867f
c4 ( 47 0 ) capacitor c=1.57867f
c5 ( 43 0 ) capacitor c=1.57867f
c6 ( 39 0 ) capacitor c=1.57867f
c7 ( 35 0 ) capacitor c=1.57867f
c8 ( 31 0 ) capacitor c=1.57867f
c9 ( 27 0 ) capacitor c=1.57867f
c10 ( 23 0 ) capacitor c=1.57867f
c11 ( 19 0 ) capacitor c=1.57867f
c12 ( 15 0 ) capacitor c=1.57867f
c13 ( 11 0 ) capacitor c=1.57867f
c14 ( 7 0 ) capacitor c=1.57867f
c15 ( 3 0 ) capacitor c=1.57867f
r16 (  61 63 ) resistor r=11.8425
r17 (  57 59 ) resistor r=11.8425
r18 (  53 55 ) resistor r=11.8425
r19 (  49 51 ) resistor r=11.8425
r20 (  45 47 ) resistor r=11.8425
r21 (  41 43 ) resistor r=11.8425
r22 (  37 39 ) resistor r=11.8425
r23 (  33 35 ) resistor r=11.8425
r24 (  29 31 ) resistor r=11.8425
r25 (  25 27 ) resistor r=11.8425
r26 (  21 23 ) resistor r=11.8425
r27 (  17 19 ) resistor r=11.8425
r28 (  13 15 ) resistor r=11.8425
r29 (  9 11 ) resistor r=11.8425
r30 (  5 7 ) resistor r=11.8425
r31 (  1 3 ) resistor r=11.8425
ends PM_POST_L2_256T2_EX\%SEL0\<8\>

subckt PM_POST_L2_256T2_EX\%WLSEL\<496\> ( 1 3 )
c0 ( 3 0 ) capacitor c=0.0282959f
r1 (  1 3 ) resistor r=0.135
ends PM_POST_L2_256T2_EX\%WLSEL\<496\>

subckt PM_POST_L2_256T2_EX\%WLSEL\<495\> ( 1 3 )
c0 ( 3 0 ) capacitor c=0.0282959f
r1 (  1 3 ) resistor r=0.135
ends PM_POST_L2_256T2_EX\%WLSEL\<495\>

subckt PM_POST_L2_256T2_EX\%SEL0\<7\> ( 1 3 5 7 9 11 13 15 17 19 21 23 25 27 \
 29 31 33 35 37 39 41 43 45 47 49 51 53 55 57 59 61 63 )
c0 ( 63 0 ) capacitor c=1.57867f
c1 ( 59 0 ) capacitor c=1.57867f
c2 ( 55 0 ) capacitor c=1.57867f
c3 ( 51 0 ) capacitor c=1.57867f
c4 ( 47 0 ) capacitor c=1.57867f
c5 ( 43 0 ) capacitor c=1.57867f
c6 ( 39 0 ) capacitor c=1.57867f
c7 ( 35 0 ) capacitor c=1.57867f
c8 ( 31 0 ) capacitor c=1.57867f
c9 ( 27 0 ) capacitor c=1.57867f
c10 ( 23 0 ) capacitor c=1.57867f
c11 ( 19 0 ) capacitor c=1.57867f
c12 ( 15 0 ) capacitor c=1.57867f
c13 ( 11 0 ) capacitor c=1.57867f
c14 ( 7 0 ) capacitor c=1.57867f
c15 ( 3 0 ) capacitor c=1.57867f
r16 (  61 63 ) resistor r=11.8425
r17 (  57 59 ) resistor r=11.8425
r18 (  53 55 ) resistor r=11.8425
r19 (  49 51 ) resistor r=11.8425
r20 (  45 47 ) resistor r=11.8425
r21 (  41 43 ) resistor r=11.8425
r22 (  37 39 ) resistor r=11.8425
r23 (  33 35 ) resistor r=11.8425
r24 (  29 31 ) resistor r=11.8425
r25 (  25 27 ) resistor r=11.8425
r26 (  21 23 ) resistor r=11.8425
r27 (  17 19 ) resistor r=11.8425
r28 (  13 15 ) resistor r=11.8425
r29 (  9 11 ) resistor r=11.8425
r30 (  5 7 ) resistor r=11.8425
r31 (  1 3 ) resistor r=11.8425
ends PM_POST_L2_256T2_EX\%SEL0\<7\>

subckt PM_POST_L2_256T2_EX\%WLSEL\<494\> ( 1 3 )
c0 ( 3 0 ) capacitor c=0.0282959f
r1 (  1 3 ) resistor r=0.135
ends PM_POST_L2_256T2_EX\%WLSEL\<494\>

subckt PM_POST_L2_256T2_EX\%WLSEL\<493\> ( 1 3 )
c0 ( 3 0 ) capacitor c=0.0282959f
r1 (  1 3 ) resistor r=0.135
ends PM_POST_L2_256T2_EX\%WLSEL\<493\>

subckt PM_POST_L2_256T2_EX\%SEL0\<6\> ( 1 3 5 7 9 11 13 15 17 19 21 23 25 27 \
 29 31 33 35 37 39 41 43 45 47 49 51 53 55 57 59 61 63 )
c0 ( 63 0 ) capacitor c=1.57867f
c1 ( 59 0 ) capacitor c=1.57867f
c2 ( 55 0 ) capacitor c=1.57867f
c3 ( 51 0 ) capacitor c=1.57867f
c4 ( 47 0 ) capacitor c=1.57867f
c5 ( 43 0 ) capacitor c=1.57867f
c6 ( 39 0 ) capacitor c=1.57867f
c7 ( 35 0 ) capacitor c=1.57867f
c8 ( 31 0 ) capacitor c=1.57867f
c9 ( 27 0 ) capacitor c=1.57867f
c10 ( 23 0 ) capacitor c=1.57867f
c11 ( 19 0 ) capacitor c=1.57867f
c12 ( 15 0 ) capacitor c=1.57867f
c13 ( 11 0 ) capacitor c=1.57867f
c14 ( 7 0 ) capacitor c=1.57867f
c15 ( 3 0 ) capacitor c=1.57867f
r16 (  61 63 ) resistor r=11.8425
r17 (  57 59 ) resistor r=11.8425
r18 (  53 55 ) resistor r=11.8425
r19 (  49 51 ) resistor r=11.8425
r20 (  45 47 ) resistor r=11.8425
r21 (  41 43 ) resistor r=11.8425
r22 (  37 39 ) resistor r=11.8425
r23 (  33 35 ) resistor r=11.8425
r24 (  29 31 ) resistor r=11.8425
r25 (  25 27 ) resistor r=11.8425
r26 (  21 23 ) resistor r=11.8425
r27 (  17 19 ) resistor r=11.8425
r28 (  13 15 ) resistor r=11.8425
r29 (  9 11 ) resistor r=11.8425
r30 (  5 7 ) resistor r=11.8425
r31 (  1 3 ) resistor r=11.8425
ends PM_POST_L2_256T2_EX\%SEL0\<6\>

subckt PM_POST_L2_256T2_EX\%WLSEL\<492\> ( 1 3 )
c0 ( 3 0 ) capacitor c=0.0282959f
r1 (  1 3 ) resistor r=0.135
ends PM_POST_L2_256T2_EX\%WLSEL\<492\>

subckt PM_POST_L2_256T2_EX\%WLSEL\<491\> ( 1 3 )
c0 ( 3 0 ) capacitor c=0.0282959f
r1 (  1 3 ) resistor r=0.135
ends PM_POST_L2_256T2_EX\%WLSEL\<491\>

subckt PM_POST_L2_256T2_EX\%SEL0\<5\> ( 1 3 5 7 9 11 13 15 17 19 21 23 25 27 \
 29 31 33 35 37 39 41 43 45 47 49 51 53 55 57 59 61 63 )
c0 ( 63 0 ) capacitor c=1.57867f
c1 ( 59 0 ) capacitor c=1.57867f
c2 ( 55 0 ) capacitor c=1.57867f
c3 ( 51 0 ) capacitor c=1.57867f
c4 ( 47 0 ) capacitor c=1.57867f
c5 ( 43 0 ) capacitor c=1.57867f
c6 ( 39 0 ) capacitor c=1.57867f
c7 ( 35 0 ) capacitor c=1.57867f
c8 ( 31 0 ) capacitor c=1.57867f
c9 ( 27 0 ) capacitor c=1.57867f
c10 ( 23 0 ) capacitor c=1.57867f
c11 ( 19 0 ) capacitor c=1.57867f
c12 ( 15 0 ) capacitor c=1.57867f
c13 ( 11 0 ) capacitor c=1.57867f
c14 ( 7 0 ) capacitor c=1.57867f
c15 ( 3 0 ) capacitor c=1.57867f
r16 (  61 63 ) resistor r=11.8425
r17 (  57 59 ) resistor r=11.8425
r18 (  53 55 ) resistor r=11.8425
r19 (  49 51 ) resistor r=11.8425
r20 (  45 47 ) resistor r=11.8425
r21 (  41 43 ) resistor r=11.8425
r22 (  37 39 ) resistor r=11.8425
r23 (  33 35 ) resistor r=11.8425
r24 (  29 31 ) resistor r=11.8425
r25 (  25 27 ) resistor r=11.8425
r26 (  21 23 ) resistor r=11.8425
r27 (  17 19 ) resistor r=11.8425
r28 (  13 15 ) resistor r=11.8425
r29 (  9 11 ) resistor r=11.8425
r30 (  5 7 ) resistor r=11.8425
r31 (  1 3 ) resistor r=11.8425
ends PM_POST_L2_256T2_EX\%SEL0\<5\>

subckt PM_POST_L2_256T2_EX\%WLSEL\<490\> ( 1 3 )
c0 ( 3 0 ) capacitor c=0.0282959f
r1 (  1 3 ) resistor r=0.135
ends PM_POST_L2_256T2_EX\%WLSEL\<490\>

subckt PM_POST_L2_256T2_EX\%WLSEL\<489\> ( 1 3 )
c0 ( 3 0 ) capacitor c=0.0282959f
r1 (  1 3 ) resistor r=0.135
ends PM_POST_L2_256T2_EX\%WLSEL\<489\>

subckt PM_POST_L2_256T2_EX\%SEL0\<4\> ( 1 3 5 7 9 11 13 15 17 19 21 23 25 27 \
 29 31 33 35 37 39 41 43 45 47 49 51 53 55 57 59 61 63 )
c0 ( 63 0 ) capacitor c=1.57867f
c1 ( 59 0 ) capacitor c=1.57867f
c2 ( 55 0 ) capacitor c=1.57867f
c3 ( 51 0 ) capacitor c=1.57867f
c4 ( 47 0 ) capacitor c=1.57867f
c5 ( 43 0 ) capacitor c=1.57867f
c6 ( 39 0 ) capacitor c=1.57867f
c7 ( 35 0 ) capacitor c=1.57867f
c8 ( 31 0 ) capacitor c=1.57867f
c9 ( 27 0 ) capacitor c=1.57867f
c10 ( 23 0 ) capacitor c=1.57867f
c11 ( 19 0 ) capacitor c=1.57867f
c12 ( 15 0 ) capacitor c=1.57867f
c13 ( 11 0 ) capacitor c=1.57867f
c14 ( 7 0 ) capacitor c=1.57867f
c15 ( 3 0 ) capacitor c=1.57867f
r16 (  61 63 ) resistor r=11.8425
r17 (  57 59 ) resistor r=11.8425
r18 (  53 55 ) resistor r=11.8425
r19 (  49 51 ) resistor r=11.8425
r20 (  45 47 ) resistor r=11.8425
r21 (  41 43 ) resistor r=11.8425
r22 (  37 39 ) resistor r=11.8425
r23 (  33 35 ) resistor r=11.8425
r24 (  29 31 ) resistor r=11.8425
r25 (  25 27 ) resistor r=11.8425
r26 (  21 23 ) resistor r=11.8425
r27 (  17 19 ) resistor r=11.8425
r28 (  13 15 ) resistor r=11.8425
r29 (  9 11 ) resistor r=11.8425
r30 (  5 7 ) resistor r=11.8425
r31 (  1 3 ) resistor r=11.8425
ends PM_POST_L2_256T2_EX\%SEL0\<4\>

subckt PM_POST_L2_256T2_EX\%WLSEL\<488\> ( 1 3 )
c0 ( 3 0 ) capacitor c=0.0282959f
r1 (  1 3 ) resistor r=0.135
ends PM_POST_L2_256T2_EX\%WLSEL\<488\>

subckt PM_POST_L2_256T2_EX\%WLSEL\<487\> ( 1 3 )
c0 ( 3 0 ) capacitor c=0.0282959f
r1 (  1 3 ) resistor r=0.135
ends PM_POST_L2_256T2_EX\%WLSEL\<487\>

subckt PM_POST_L2_256T2_EX\%SEL0\<3\> ( 1 3 5 7 9 11 13 15 17 19 21 23 25 27 \
 29 31 33 35 37 39 41 43 45 47 49 51 53 55 57 59 61 63 )
c0 ( 63 0 ) capacitor c=1.57867f
c1 ( 59 0 ) capacitor c=1.57867f
c2 ( 55 0 ) capacitor c=1.57867f
c3 ( 51 0 ) capacitor c=1.57867f
c4 ( 47 0 ) capacitor c=1.57867f
c5 ( 43 0 ) capacitor c=1.57867f
c6 ( 39 0 ) capacitor c=1.57867f
c7 ( 35 0 ) capacitor c=1.57867f
c8 ( 31 0 ) capacitor c=1.57867f
c9 ( 27 0 ) capacitor c=1.57867f
c10 ( 23 0 ) capacitor c=1.57867f
c11 ( 19 0 ) capacitor c=1.57867f
c12 ( 15 0 ) capacitor c=1.57867f
c13 ( 11 0 ) capacitor c=1.57867f
c14 ( 7 0 ) capacitor c=1.57867f
c15 ( 3 0 ) capacitor c=1.57867f
r16 (  61 63 ) resistor r=11.8425
r17 (  57 59 ) resistor r=11.8425
r18 (  53 55 ) resistor r=11.8425
r19 (  49 51 ) resistor r=11.8425
r20 (  45 47 ) resistor r=11.8425
r21 (  41 43 ) resistor r=11.8425
r22 (  37 39 ) resistor r=11.8425
r23 (  33 35 ) resistor r=11.8425
r24 (  29 31 ) resistor r=11.8425
r25 (  25 27 ) resistor r=11.8425
r26 (  21 23 ) resistor r=11.8425
r27 (  17 19 ) resistor r=11.8425
r28 (  13 15 ) resistor r=11.8425
r29 (  9 11 ) resistor r=11.8425
r30 (  5 7 ) resistor r=11.8425
r31 (  1 3 ) resistor r=11.8425
ends PM_POST_L2_256T2_EX\%SEL0\<3\>

subckt PM_POST_L2_256T2_EX\%WLSEL\<486\> ( 1 3 )
c0 ( 3 0 ) capacitor c=0.0282959f
r1 (  1 3 ) resistor r=0.135
ends PM_POST_L2_256T2_EX\%WLSEL\<486\>

subckt PM_POST_L2_256T2_EX\%WLSEL\<485\> ( 1 3 )
c0 ( 3 0 ) capacitor c=0.0282959f
r1 (  1 3 ) resistor r=0.135
ends PM_POST_L2_256T2_EX\%WLSEL\<485\>

subckt PM_POST_L2_256T2_EX\%SEL0\<2\> ( 1 3 5 7 9 11 13 15 17 19 21 23 25 27 \
 29 31 33 35 37 39 41 43 45 47 49 51 53 55 57 59 61 63 )
c0 ( 63 0 ) capacitor c=1.57867f
c1 ( 59 0 ) capacitor c=1.57867f
c2 ( 55 0 ) capacitor c=1.57867f
c3 ( 51 0 ) capacitor c=1.57867f
c4 ( 47 0 ) capacitor c=1.57867f
c5 ( 43 0 ) capacitor c=1.57867f
c6 ( 39 0 ) capacitor c=1.57867f
c7 ( 35 0 ) capacitor c=1.57867f
c8 ( 31 0 ) capacitor c=1.57867f
c9 ( 27 0 ) capacitor c=1.57867f
c10 ( 23 0 ) capacitor c=1.57867f
c11 ( 19 0 ) capacitor c=1.57867f
c12 ( 15 0 ) capacitor c=1.57867f
c13 ( 11 0 ) capacitor c=1.57867f
c14 ( 7 0 ) capacitor c=1.57867f
c15 ( 3 0 ) capacitor c=1.57867f
r16 (  61 63 ) resistor r=11.8425
r17 (  57 59 ) resistor r=11.8425
r18 (  53 55 ) resistor r=11.8425
r19 (  49 51 ) resistor r=11.8425
r20 (  45 47 ) resistor r=11.8425
r21 (  41 43 ) resistor r=11.8425
r22 (  37 39 ) resistor r=11.8425
r23 (  33 35 ) resistor r=11.8425
r24 (  29 31 ) resistor r=11.8425
r25 (  25 27 ) resistor r=11.8425
r26 (  21 23 ) resistor r=11.8425
r27 (  17 19 ) resistor r=11.8425
r28 (  13 15 ) resistor r=11.8425
r29 (  9 11 ) resistor r=11.8425
r30 (  5 7 ) resistor r=11.8425
r31 (  1 3 ) resistor r=11.8425
ends PM_POST_L2_256T2_EX\%SEL0\<2\>

subckt PM_POST_L2_256T2_EX\%WLSEL\<484\> ( 1 3 )
c0 ( 3 0 ) capacitor c=0.0282959f
r1 (  1 3 ) resistor r=0.135
ends PM_POST_L2_256T2_EX\%WLSEL\<484\>

subckt PM_POST_L2_256T2_EX\%WLSEL\<483\> ( 1 3 )
c0 ( 3 0 ) capacitor c=0.0282959f
r1 (  1 3 ) resistor r=0.135
ends PM_POST_L2_256T2_EX\%WLSEL\<483\>

subckt PM_POST_L2_256T2_EX\%SEL0\<1\> ( 1 3 5 7 9 11 13 15 17 19 21 23 25 27 \
 29 31 33 35 37 39 41 43 45 47 49 51 53 55 57 59 61 63 )
c0 ( 63 0 ) capacitor c=1.57867f
c1 ( 59 0 ) capacitor c=1.57867f
c2 ( 55 0 ) capacitor c=1.57867f
c3 ( 51 0 ) capacitor c=1.57867f
c4 ( 47 0 ) capacitor c=1.57867f
c5 ( 43 0 ) capacitor c=1.57867f
c6 ( 39 0 ) capacitor c=1.57867f
c7 ( 35 0 ) capacitor c=1.57867f
c8 ( 31 0 ) capacitor c=1.57867f
c9 ( 27 0 ) capacitor c=1.57867f
c10 ( 23 0 ) capacitor c=1.57867f
c11 ( 19 0 ) capacitor c=1.57867f
c12 ( 15 0 ) capacitor c=1.57867f
c13 ( 11 0 ) capacitor c=1.57867f
c14 ( 7 0 ) capacitor c=1.57867f
c15 ( 3 0 ) capacitor c=1.57867f
r16 (  61 63 ) resistor r=11.8425
r17 (  57 59 ) resistor r=11.8425
r18 (  53 55 ) resistor r=11.8425
r19 (  49 51 ) resistor r=11.8425
r20 (  45 47 ) resistor r=11.8425
r21 (  41 43 ) resistor r=11.8425
r22 (  37 39 ) resistor r=11.8425
r23 (  33 35 ) resistor r=11.8425
r24 (  29 31 ) resistor r=11.8425
r25 (  25 27 ) resistor r=11.8425
r26 (  21 23 ) resistor r=11.8425
r27 (  17 19 ) resistor r=11.8425
r28 (  13 15 ) resistor r=11.8425
r29 (  9 11 ) resistor r=11.8425
r30 (  5 7 ) resistor r=11.8425
r31 (  1 3 ) resistor r=11.8425
ends PM_POST_L2_256T2_EX\%SEL0\<1\>

subckt PM_POST_L2_256T2_EX\%WLSEL\<482\> ( 1 3 )
c0 ( 3 0 ) capacitor c=0.0282959f
r1 (  1 3 ) resistor r=0.135
ends PM_POST_L2_256T2_EX\%WLSEL\<482\>

subckt PM_POST_L2_256T2_EX\%WLSEL\<481\> ( 1 3 )
c0 ( 3 0 ) capacitor c=0.0282959f
r1 (  1 3 ) resistor r=0.135
ends PM_POST_L2_256T2_EX\%WLSEL\<481\>

subckt PM_POST_L2_256T2_EX\%SEL0\<0\> ( 1 3 5 7 9 11 13 15 17 19 21 23 25 27 \
 29 31 33 35 37 39 41 43 45 47 49 51 53 55 57 59 61 63 )
c0 ( 63 0 ) capacitor c=1.03629f
c1 ( 59 0 ) capacitor c=1.57867f
c2 ( 55 0 ) capacitor c=1.57867f
c3 ( 51 0 ) capacitor c=1.57867f
c4 ( 47 0 ) capacitor c=1.57867f
c5 ( 43 0 ) capacitor c=1.57867f
c6 ( 39 0 ) capacitor c=1.57867f
c7 ( 35 0 ) capacitor c=1.57867f
c8 ( 31 0 ) capacitor c=1.57867f
c9 ( 27 0 ) capacitor c=1.57867f
c10 ( 23 0 ) capacitor c=1.57867f
c11 ( 19 0 ) capacitor c=1.57867f
c12 ( 15 0 ) capacitor c=1.57867f
c13 ( 11 0 ) capacitor c=1.57867f
c14 ( 7 0 ) capacitor c=1.57867f
c15 ( 3 0 ) capacitor c=1.57867f
r16 (  61 63 ) resistor r=9.03213
r17 (  57 59 ) resistor r=11.8425
r18 (  53 55 ) resistor r=11.8425
r19 (  49 51 ) resistor r=11.8425
r20 (  45 47 ) resistor r=11.8425
r21 (  41 43 ) resistor r=11.8425
r22 (  37 39 ) resistor r=11.8425
r23 (  33 35 ) resistor r=11.8425
r24 (  29 31 ) resistor r=11.8425
r25 (  25 27 ) resistor r=11.8425
r26 (  21 23 ) resistor r=11.8425
r27 (  17 19 ) resistor r=11.8425
r28 (  13 15 ) resistor r=11.8425
r29 (  9 11 ) resistor r=11.8425
r30 (  5 7 ) resistor r=11.8425
r31 (  1 3 ) resistor r=11.8425
ends PM_POST_L2_256T2_EX\%SEL0\<0\>

subckt PM_POST_L2_256T2_EX\%WLSEL\<480\> ( 1 3 )
c0 ( 3 0 ) capacitor c=0.0282959f
r1 (  1 3 ) resistor r=0.135
ends PM_POST_L2_256T2_EX\%WLSEL\<480\>

subckt PM_POST_L2_256T2_EX\%SEL1\<14\> ( 1 3 5 7 9 11 13 15 17 19 21 23 25 27 \
 29 31 33 35 37 39 41 43 45 47 49 51 53 55 57 59 61 63 )
c0 ( 63 0 ) capacitor c=1.57867f
c1 ( 59 0 ) capacitor c=1.57867f
c2 ( 55 0 ) capacitor c=1.57867f
c3 ( 51 0 ) capacitor c=1.57867f
c4 ( 47 0 ) capacitor c=1.57867f
c5 ( 43 0 ) capacitor c=1.57867f
c6 ( 39 0 ) capacitor c=1.57867f
c7 ( 35 0 ) capacitor c=1.57867f
c8 ( 31 0 ) capacitor c=1.57867f
c9 ( 27 0 ) capacitor c=1.57867f
c10 ( 23 0 ) capacitor c=1.57867f
c11 ( 19 0 ) capacitor c=1.57867f
c12 ( 15 0 ) capacitor c=1.57867f
c13 ( 11 0 ) capacitor c=1.57867f
c14 ( 7 0 ) capacitor c=1.57867f
c15 ( 3 0 ) capacitor c=1.57867f
r16 (  61 63 ) resistor r=11.8575
r17 (  57 59 ) resistor r=11.8575
r18 (  53 55 ) resistor r=11.8575
r19 (  49 51 ) resistor r=11.8575
r20 (  45 47 ) resistor r=11.8575
r21 (  41 43 ) resistor r=11.8575
r22 (  37 39 ) resistor r=11.8575
r23 (  33 35 ) resistor r=11.8575
r24 (  29 31 ) resistor r=11.8575
r25 (  25 27 ) resistor r=11.8575
r26 (  21 23 ) resistor r=11.8575
r27 (  17 19 ) resistor r=11.8575
r28 (  13 15 ) resistor r=11.8575
r29 (  9 11 ) resistor r=11.8575
r30 (  5 7 ) resistor r=11.8575
r31 (  1 3 ) resistor r=11.8575
ends PM_POST_L2_256T2_EX\%SEL1\<14\>

subckt PM_POST_L2_256T2_EX\%WLSEL\<479\> ( 1 3 )
c0 ( 3 0 ) capacitor c=0.0282959f
r1 (  1 3 ) resistor r=0.135
ends PM_POST_L2_256T2_EX\%WLSEL\<479\>

subckt PM_POST_L2_256T2_EX\%WLSEL\<478\> ( 1 3 )
c0 ( 3 0 ) capacitor c=0.0282959f
r1 (  1 3 ) resistor r=0.135
ends PM_POST_L2_256T2_EX\%WLSEL\<478\>

subckt PM_POST_L2_256T2_EX\%WLSEL\<477\> ( 1 3 )
c0 ( 3 0 ) capacitor c=0.0282959f
r1 (  1 3 ) resistor r=0.135
ends PM_POST_L2_256T2_EX\%WLSEL\<477\>

subckt PM_POST_L2_256T2_EX\%WLSEL\<476\> ( 1 3 )
c0 ( 3 0 ) capacitor c=0.0282959f
r1 (  1 3 ) resistor r=0.135
ends PM_POST_L2_256T2_EX\%WLSEL\<476\>

subckt PM_POST_L2_256T2_EX\%WLSEL\<475\> ( 1 3 )
c0 ( 3 0 ) capacitor c=0.0282959f
r1 (  1 3 ) resistor r=0.135
ends PM_POST_L2_256T2_EX\%WLSEL\<475\>

subckt PM_POST_L2_256T2_EX\%WLSEL\<474\> ( 1 3 )
c0 ( 3 0 ) capacitor c=0.0282959f
r1 (  1 3 ) resistor r=0.135
ends PM_POST_L2_256T2_EX\%WLSEL\<474\>

subckt PM_POST_L2_256T2_EX\%WLSEL\<473\> ( 1 3 )
c0 ( 3 0 ) capacitor c=0.0282959f
r1 (  1 3 ) resistor r=0.135
ends PM_POST_L2_256T2_EX\%WLSEL\<473\>

subckt PM_POST_L2_256T2_EX\%WLSEL\<472\> ( 1 3 )
c0 ( 3 0 ) capacitor c=0.0282959f
r1 (  1 3 ) resistor r=0.135
ends PM_POST_L2_256T2_EX\%WLSEL\<472\>

subckt PM_POST_L2_256T2_EX\%WLSEL\<471\> ( 1 3 )
c0 ( 3 0 ) capacitor c=0.0282959f
r1 (  1 3 ) resistor r=0.135
ends PM_POST_L2_256T2_EX\%WLSEL\<471\>

subckt PM_POST_L2_256T2_EX\%WLSEL\<470\> ( 1 3 )
c0 ( 3 0 ) capacitor c=0.0282959f
r1 (  1 3 ) resistor r=0.135
ends PM_POST_L2_256T2_EX\%WLSEL\<470\>

subckt PM_POST_L2_256T2_EX\%WLSEL\<469\> ( 1 3 )
c0 ( 3 0 ) capacitor c=0.0282959f
r1 (  1 3 ) resistor r=0.135
ends PM_POST_L2_256T2_EX\%WLSEL\<469\>

subckt PM_POST_L2_256T2_EX\%WLSEL\<468\> ( 1 3 )
c0 ( 3 0 ) capacitor c=0.0282959f
r1 (  1 3 ) resistor r=0.135
ends PM_POST_L2_256T2_EX\%WLSEL\<468\>

subckt PM_POST_L2_256T2_EX\%WLSEL\<467\> ( 1 3 )
c0 ( 3 0 ) capacitor c=0.0282959f
r1 (  1 3 ) resistor r=0.135
ends PM_POST_L2_256T2_EX\%WLSEL\<467\>

subckt PM_POST_L2_256T2_EX\%WLSEL\<466\> ( 1 3 )
c0 ( 3 0 ) capacitor c=0.0282959f
r1 (  1 3 ) resistor r=0.135
ends PM_POST_L2_256T2_EX\%WLSEL\<466\>

subckt PM_POST_L2_256T2_EX\%WLSEL\<465\> ( 1 3 )
c0 ( 3 0 ) capacitor c=0.0282959f
r1 (  1 3 ) resistor r=0.135
ends PM_POST_L2_256T2_EX\%WLSEL\<465\>

subckt PM_POST_L2_256T2_EX\%WLSEL\<464\> ( 1 3 )
c0 ( 3 0 ) capacitor c=0.0282959f
r1 (  1 3 ) resistor r=0.135
ends PM_POST_L2_256T2_EX\%WLSEL\<464\>
