simulator lang=spectre
include "R_1X_LL.scs"
include "n_12_llrvt.scs"
include "p_12_llrvt.scs"
